   Input file: ../examples/ex-exchange-equilibrium-seawater-with-carbonates
  Output file: ../examples/ex-exchange-equilibrium-seawater-with-carbonates.out
Database file: ../database/phreeqc.dat

------------------
Reading data base.
------------------

	SOLUTION_MASTER_SPECIES
	SOLUTION_SPECIES
	PHASES
	EXCHANGE_MASTER_SPECIES
	EXCHANGE_SPECIES
	SURFACE_MASTER_SPECIES
	SURFACE_SPECIES
	RATES
	END
------------------------------------
Reading input data for simulation 1.
------------------------------------

	DATABASE ../database/phreeqc.dat
	TITLE Calcite and dolomite equilibrium with seawater, P = 1 atm
	SOLUTION 1  Seawater water
	        units   mol/kgw
	        Na 1.00
	        Mg 0.48
	        Ca 1.9
	EQUILIBRIUM_PHASES
	        Calcite 0.0 10.0
	        Dolomite 0.0 10.0
	EXCHANGE 1
	        X  1.0
	REACTION_TEMPERATURE 1
	        25.0 90.0 in 14 steps
	SELECTED_OUTPUT
	        file   ../out/phreeqc-exchange-seawater-with-carbonates-p-1.txt
	        temperature
	        ionic_strength
	        molalities Ca+2 Mg+2 H+ HCO3- NaX MgX2 CaX2
	        equilibrium_phases Calcite Dolomite
	END
-----
TITLE
-----

 Calcite and dolomite equilibrium with seawater, P = 1 atm

-------------------------------------------
Beginning of initial solution calculations.
-------------------------------------------

Initial solution 1.	Seawater water

-----------------------------Solution composition------------------------------

	Elements           Molality       Moles

	Ca                1.900e+00   1.900e+00
	Mg                4.800e-01   4.800e-01
	Na                1.000e+00   1.000e+00

----------------------------Description of solution----------------------------

                                       pH  =   7.000    
                                       pe  =   4.000    
      Specific Conductance (µS/cm,  25°C)  = 74224
                          Density (g/cm³)  =   1.14790
                               Volume (L)  =   0.96769
                        Activity of water  =   0.943
                 Ionic strength (mol/kgw)  =   5.260e+00
                       Mass of water (kg)  =   1.000e+00
                 Total alkalinity (eq/kg)  =   3.686e-05
                         Temperature (°C)  =  25.00
                  Electrical balance (eq)  =   5.760e+00
 Percent error, 100*(Cat-|An|)/(Cat+|An|)  = 100.00
                               Iterations  =   5
                                  Total H  = 1.110125e+02
                                  Total O  = 5.550625e+01

----------------------------Distribution of species----------------------------

                                               Log       Log       Log    mole V
   Species          Molality    Activity  Molality  Activity     Gamma   cm³/mol

   OH-             2.001e-07   9.540e-08    -6.699    -7.020    -0.322      3.76
   H+              1.414e-07   1.000e-07    -6.850    -7.000    -0.150      0.00
   H2O             5.551e+01   9.425e-01     1.744    -0.026     0.000     18.07
Ca            1.900e+00
   Ca+2            1.900e+00   1.463e+00     0.279     0.165    -0.114    -14.56
   CaOH+           8.124e-07   2.288e-06    -6.090    -5.641     0.450     (0)  
H(0)          4.217e-26
   H2              2.109e-26   7.079e-26   -25.676   -25.150     0.526     28.61
Mg            4.800e-01
   Mg+2            4.800e-01   6.661e-01    -0.319    -0.176     0.142    -18.10
   MgOH+           3.599e-05   2.280e-05    -4.444    -4.642    -0.198     (0)  
Na            1.000e+00
   Na+             1.000e+00   1.394e+00    -0.000     0.144     0.144      1.08
   NaOH            3.960e-18   1.330e-17   -17.402   -16.876     0.526     (0)  
O(0)          0.000e+00
   O2              0.000e+00   0.000e+00   -42.657   -42.131     0.526     30.40

------------------------------Saturation indices-------------------------------

  Phase               SI** log IAP   log K(298 K,   1 atm)

  H2(g)           -22.05    -25.15   -3.10  H2
  H2O(g)           -1.53     -0.03    1.50  H2O
  O2(g)           -39.24    -42.13   -2.89  O2

**For a gas, SI = log10(fugacity). Fugacity = pressure * phi / 1 atm.
  For ideal gases, phi = 1.

-----------------------------------------
Beginning of batch-reaction calculations.
-----------------------------------------

Reaction step 1.

Using solution 1.	Seawater water
Using exchange 1.	
Using pure phase assemblage 1.	
Using temperature 1.	

-------------------------------Phase assemblage--------------------------------

                                                      Moles in assemblage
Phase               SI  log IAP  log K(T, P)   Initial       Final       Delta

Calcite           0.00    -8.48     -8.48    1.000e+01   1.017e+01   1.740e-01
Dolomite          0.00   -17.09    -17.09    1.000e+01   9.598e+00  -4.025e-01

-----------------------------Exchange composition------------------------------

X                1.000e+00 mol

	                               Equiv-    Equivalent      Log 
	Species             Moles      alents      Fraction     Gamma

	CaX2              3.187e-01   6.374e-01   6.374e-01    -0.114
	NaX               1.974e-01   1.974e-01   1.974e-01     0.144
	MgX2              8.262e-02   1.652e-01   1.652e-01     0.142

-----------------------------Solution composition------------------------------

	Elements           Molality       Moles

	C                 6.324e-01   6.309e-01
	Ca                1.814e+00   1.810e+00
	Mg                8.017e-01   7.998e-01
	Na                8.045e-01   8.026e-01

----------------------------Description of solution----------------------------

                                       pH  =   4.023      Charge balance
                                       pe  =  17.493      Adjusted to redox equilibrium
      Specific Conductance (µS/cm,  25°C)  = 71035
                          Density (g/cm³)  =   1.16290
                               Volume (L)  =   0.98744
                        Activity of water  =   0.931
                 Ionic strength (mol/kgw)  =   5.259e+00
                       Mass of water (kg)  =   9.976e-01
                 Total alkalinity (eq/kg)  =   2.624e-01
                       Total CO2 (mol/kg)  =   6.324e-01
                         Temperature (°C)  =  25.00
                  Electrical balance (eq)  =   5.760e+00
 Percent error, 100*(Cat-|An|)/(Cat+|An|)  =  99.69
                               Iterations  =  37
                                  Total H  = 1.110125e+02
                                  Total O  = 5.739886e+01

----------------------------Distribution of species----------------------------

                                               Log       Log       Log    mole V
   Species          Molality    Activity  Molality  Activity     Gamma   cm³/mol

   H+              1.340e-04   9.480e-05    -3.873    -4.023    -0.150      0.00
   OH-             2.085e-10   9.943e-11    -9.681   -10.002    -0.322      3.76
   H2O             5.551e+01   9.313e-01     1.744    -0.031     0.000     18.07
C(-4)         0.000e+00
   CH4             0.000e+00   0.000e+00  -148.132  -147.606     0.526     35.46
C(4)          6.324e-01
   CO2             3.544e-01   1.189e+00    -0.451     0.075     0.526     34.43
   CaHCO3+         1.392e-01   8.544e-02    -0.856    -1.068    -0.212     10.07
   MgHCO3+         1.135e-01   5.804e-02    -0.945    -1.236    -0.291      5.99
   HCO3-           8.841e-03   5.196e-03    -2.054    -2.284    -0.231     38.93
   (CO2)2          7.736e-03   2.596e-02    -2.111    -1.586     0.526     68.87
   NaHCO3          9.749e-04   3.272e-03    -3.011    -2.485     0.526      1.80
   CaCO3           1.658e-06   5.565e-06    -5.780    -5.255     0.526    -14.60
   MgCO3           6.976e-07   2.341e-06    -6.156    -5.631     0.526    -17.09
   CO3-2           2.154e-08   2.571e-09    -7.667    -8.590    -0.923      5.76
   NaCO3-          1.904e-08   5.360e-08    -7.720    -7.271     0.449     25.83
Ca            1.814e+00
   Ca+2            1.675e+00   1.289e+00     0.224     0.110    -0.114    -14.56
   CaHCO3+         1.392e-01   8.544e-02    -0.856    -1.068    -0.212     10.07
   CaCO3           1.658e-06   5.565e-06    -5.780    -5.255     0.526    -14.60
   CaOH+           7.463e-10   2.101e-09    -9.127    -8.678     0.449     (0)  
H(0)          0.000e+00
   H2              0.000e+00   0.000e+00   -46.709   -46.183     0.526     28.61
Mg            8.017e-01
   Mg+2            6.882e-01   9.545e-01    -0.162    -0.020     0.142    -18.10
   MgHCO3+         1.135e-01   5.804e-02    -0.945    -1.236    -0.291      5.99
   MgCO3           6.976e-07   2.341e-06    -6.156    -5.631     0.526    -17.09
   MgOH+           5.375e-08   3.405e-08    -7.270    -7.468    -0.198     (0)  
Na            8.045e-01
   Na+             8.036e-01   1.120e+00    -0.095     0.049     0.144      1.08
   NaHCO3          9.749e-04   3.272e-03    -3.011    -2.485     0.526      1.80
   NaCO3-          1.904e-08   5.360e-08    -7.720    -7.271     0.449     25.83
   NaOH            3.317e-21   1.113e-20   -20.479   -19.953     0.526     (0)  
O(0)          5.012e-01
   O2              2.506e-01   8.411e-01    -0.601    -0.075     0.526     30.40

------------------------------Saturation indices-------------------------------

  Phase               SI** log IAP   log K(298 K,   1 atm)

  Aragonite        -0.14     -8.48   -8.34  CaCO3
  Calcite           0.00     -8.48   -8.48  CaCO3
  CH4(g)         -144.80   -147.61   -2.80  CH4
  CO2(g)            1.54      0.08   -1.47  CO2
  Dolomite          0.00    -17.09  -17.09  CaMg(CO3)2
  H2(g)           -43.08    -46.18   -3.10  H2
  H2O(g)           -1.53     -0.03    1.50  H2O
  O2(g)             2.82     -0.08   -2.89  O2

**For a gas, SI = log10(fugacity). Fugacity = pressure * phi / 1 atm.
  For ideal gases, phi = 1.

Reaction step 2.

Using solution 1.	Seawater water
Using exchange 1.	
Using pure phase assemblage 1.	
Using temperature 1.	

-------------------------------Phase assemblage--------------------------------

                                                      Moles in assemblage
Phase               SI  log IAP  log K(T, P)   Initial       Final       Delta

Calcite           0.00    -8.51     -8.51    1.000e+01   1.002e+01   1.736e-02
Dolomite          0.00   -17.20    -17.20    1.000e+01   9.679e+00  -3.215e-01

-----------------------------Exchange composition------------------------------

X                1.000e+00 mol

	                               Equiv-    Equivalent      Log 
	Species             Moles      alents      Fraction     Gamma

	CaX2              3.283e-01   6.567e-01   6.567e-01    -0.120
	NaX               1.931e-01   1.931e-01   1.931e-01     0.142
	MgX2              7.513e-02   1.503e-01   1.503e-01     0.136

-----------------------------Solution composition------------------------------

	Elements           Molality       Moles

	C                 6.270e-01   6.256e-01
	Ca                1.880e+00   1.876e+00
	Mg                7.280e-01   7.264e-01
	Na                8.087e-01   8.069e-01

----------------------------Description of solution----------------------------

                                       pH  =   3.970      Charge balance
                                       pe  =  17.140      Adjusted to redox equilibrium
      Specific Conductance (µS/cm,  30°C)  = 78490
                          Density (g/cm³)  =   1.16068
                               Volume (L)  =   0.98988
                        Activity of water  =   0.931
                 Ionic strength (mol/kgw)  =   5.260e+00
                       Mass of water (kg)  =   9.977e-01
                 Total alkalinity (eq/kg)  =   2.518e-01
                       Total CO2 (mol/kg)  =   6.270e-01
                         Temperature (°C)  =  30.00
                  Electrical balance (eq)  =   5.760e+00
 Percent error, 100*(Cat-|An|)/(Cat+|An|)  =  99.71
                               Iterations  =  23
                                  Total H  = 1.110125e+02
                                  Total O  = 5.738310e+01

----------------------------Distribution of species----------------------------

                                               Log       Log       Log    mole V
   Species          Molality    Activity  Molality  Activity     Gamma   cm³/mol

   H+              1.519e-04   1.072e-04    -3.818    -3.970    -0.151      0.00
   OH-             2.689e-10   1.275e-10    -9.570    -9.894    -0.324      4.02
   H2O             5.551e+01   9.313e-01     1.744    -0.031     0.000     18.09
C(-4)         0.000e+00
   CH4             0.000e+00   0.000e+00  -145.543  -145.017     0.526     35.87
C(4)          6.270e-01
   CO2             3.566e-01   1.197e+00    -0.448     0.078     0.526     34.68
   CaHCO3+         1.436e-01   8.788e-02    -0.843    -1.056    -0.213     10.26
   MgHCO3+         9.913e-02   5.043e-02    -1.004    -1.297    -0.293      6.13
   (CO2)2          9.202e-03   3.090e-02    -2.036    -1.510     0.526     69.35
   HCO3-           8.344e-03   4.886e-03    -2.079    -2.311    -0.232     38.71
   NaHCO3          8.921e-04   2.995e-03    -3.050    -2.524     0.526      1.80
   CaCO3           1.725e-06   5.791e-06    -5.763    -5.237     0.526    -14.58
   MgCO3           6.204e-07   2.083e-06    -6.207    -5.681     0.526    -17.09
   NaCO3-          2.211e-08   6.283e-08    -7.655    -7.202     0.454     26.94
   CO3-2           1.997e-08   2.349e-09    -7.700    -8.629    -0.929      5.02
Ca            1.880e+00
   Ca+2            1.736e+00   1.316e+00     0.240     0.119    -0.120    -14.33
   CaHCO3+         1.436e-01   8.788e-02    -0.843    -1.056    -0.213     10.26
   CaCO3           1.725e-06   5.791e-06    -5.763    -5.237     0.526    -14.58
   CaOH+           6.677e-10   1.898e-09    -9.175    -8.722     0.454     (0)  
H(0)          0.000e+00
   H2              0.000e+00   0.000e+00   -45.916   -45.390     0.526     28.60
Mg            7.280e-01
   Mg+2            6.289e-01   8.605e-01    -0.201    -0.065     0.136    -18.20
   MgHCO3+         9.913e-02   5.043e-02    -1.004    -1.297    -0.293      6.13
   MgCO3           6.204e-07   2.083e-06    -6.207    -5.681     0.526    -17.09
   MgOH+           6.702e-08   4.232e-08    -7.174    -7.374    -0.200     (0)  
Na            8.087e-01
   Na+             8.078e-01   1.121e+00    -0.093     0.050     0.142      1.18
   NaHCO3          8.921e-04   2.995e-03    -3.050    -2.524     0.526      1.80
   NaCO3-          2.211e-08   6.283e-08    -7.655    -7.202     0.454     26.94
   NaOH            4.257e-21   1.429e-20   -20.371   -19.845     0.526     (0)  
O(0)          5.011e-01
   O2              2.506e-01   8.413e-01    -0.601    -0.075     0.526     30.77

------------------------------Saturation indices-------------------------------

  Phase               SI** log IAP   log K(303 K,   1 atm)

  Aragonite        -0.14     -8.51   -8.37  CaCO3
  Calcite           0.00     -8.51   -8.51  CaCO3
  CH4(g)         -142.17   -145.02   -2.84  CH4
  CO2(g)            1.60      0.08   -1.52  CO2
  Dolomite          0.00    -17.20  -17.20  CaMg(CO3)2
  H2(g)           -42.28    -45.39   -3.11  H2
  H2O(g)           -1.41     -0.03    1.38  H2O
  O2(g)             2.85     -0.08   -2.93  O2

**For a gas, SI = log10(fugacity). Fugacity = pressure * phi / 1 atm.
  For ideal gases, phi = 1.

Reaction step 3.

Using solution 1.	Seawater water
Using exchange 1.	
Using pure phase assemblage 1.	
Using temperature 1.	

-------------------------------Phase assemblage--------------------------------

                                                      Moles in assemblage
Phase               SI  log IAP  log K(T, P)   Initial       Final       Delta

Calcite           0.00    -8.54     -8.54    1.000e+01   9.899e+00  -1.012e-01
Dolomite          0.00   -17.31    -17.31    1.000e+01   9.740e+00  -2.596e-01

-----------------------------Exchange composition------------------------------

X                1.000e+00 mol

	                               Equiv-    Equivalent      Log 
	Species             Moles      alents      Fraction     Gamma

	CaX2              3.359e-01   6.719e-01   6.719e-01    -0.127
	NaX               1.892e-01   1.892e-01   1.892e-01     0.140
	MgX2              6.948e-02   1.390e-01   1.390e-01     0.130

-----------------------------Solution composition------------------------------

	Elements           Molality       Moles

	C                 6.219e-01   6.205e-01
	Ca                1.929e+00   1.925e+00
	Mg                6.716e-01   6.702e-01
	Na                8.126e-01   8.108e-01

----------------------------Description of solution----------------------------

                                       pH  =   3.923      Charge balance
                                       pe  =  16.792      Adjusted to redox equilibrium
      Specific Conductance (µS/cm,  35°C)  = 85988
                          Density (g/cm³)  =   1.15816
                               Volume (L)  =   0.99237
                        Activity of water  =   0.931
                 Ionic strength (mol/kgw)  =   5.262e+00
                       Mass of water (kg)  =   9.978e-01
                 Total alkalinity (eq/kg)  =   2.416e-01
                       Total CO2 (mol/kg)  =   6.219e-01
                         Temperature (°C)  =  35.00
                  Electrical balance (eq)  =   5.760e+00
 Percent error, 100*(Cat-|An|)/(Cat+|An|)  =  99.73
                               Iterations  =  20
                                  Total H  = 1.110125e+02
                                  Total O  = 5.736780e+01

----------------------------Distribution of species----------------------------

                                               Log       Log       Log    mole V
   Species          Molality    Activity  Molality  Activity     Gamma   cm³/mol

   H+              1.697e-04   1.195e-04    -3.770    -3.923    -0.152      0.00
   OH-             3.455e-10   1.630e-10    -9.462    -9.788    -0.326      4.23
   H2O             5.551e+01   9.313e-01     1.744    -0.031     0.000     18.12
C(-4)         0.000e+00
   CH4             0.000e+00   0.000e+00  -143.048  -142.522     0.526     36.25
C(4)          6.219e-01
   CO2             3.585e-01   1.204e+00    -0.446     0.081     0.526     34.92
   CaHCO3+         1.448e-01   8.832e-02    -0.839    -1.054    -0.215     10.42
   MgHCO3+         8.822e-02   4.467e-02    -1.054    -1.350    -0.296      6.25
   (CO2)2          1.082e-02   3.634e-02    -1.966    -1.440     0.526     69.83
   HCO3-           7.875e-03   4.595e-03    -2.104    -2.338    -0.234     38.52
   NaHCO3          8.165e-04   2.742e-03    -3.088    -2.562     0.526      1.80
   CaCO3           1.806e-06   6.067e-06    -5.743    -5.217     0.526    -14.57
   MgCO3           5.607e-07   1.883e-06    -6.251    -5.725     0.526    -17.09
   NaCO3-          2.548e-08   7.316e-08    -7.594    -7.136     0.458     27.95
   CO3-2           1.857e-08   2.151e-09    -7.731    -8.667    -0.936      4.21
Ca            1.929e+00
   Ca+2            1.784e+00   1.331e+00     0.251     0.124    -0.127    -14.15
   CaHCO3+         1.448e-01   8.832e-02    -0.839    -1.054    -0.215     10.42
   CaCO3           1.806e-06   6.067e-06    -5.743    -5.217     0.526    -14.57
   CaOH+           5.999e-10   1.722e-09    -9.222    -8.764     0.458     (0)  
H(0)          0.000e+00
   H2              0.000e+00   0.000e+00   -45.148   -44.622     0.526     28.60
Mg            6.716e-01
   Mg+2            5.834e-01   7.869e-01    -0.234    -0.104     0.130    -18.32
   MgHCO3+         8.822e-02   4.467e-02    -1.054    -1.350    -0.296      6.25
   MgCO3           5.607e-07   1.883e-06    -6.251    -5.725     0.526    -17.09
   MgOH+           8.477e-08   5.335e-08    -7.072    -7.273    -0.201     (0)  
Na            8.126e-01
   Na+             8.118e-01   1.121e+00    -0.091     0.050     0.140      1.27
   NaHCO3          8.165e-04   2.742e-03    -3.088    -2.562     0.526      1.80
   NaCO3-          2.548e-08   7.316e-08    -7.594    -7.136     0.458     27.95
   NaOH            5.440e-21   1.827e-20   -20.264   -19.738     0.526     (0)  
O(0)          5.011e-01
   O2              2.505e-01   8.415e-01    -0.601    -0.075     0.526     31.10

------------------------------Saturation indices-------------------------------

  Phase               SI** log IAP   log K(308 K,   1 atm)

  Aragonite        -0.14     -8.54   -8.41  CaCO3
  Calcite           0.00     -8.54   -8.54  CaCO3
  CH4(g)         -139.64   -142.52   -2.88  CH4
  CO2(g)            1.66      0.08   -1.58  CO2
  Dolomite          0.00    -17.31  -17.31  CaMg(CO3)2
  H2(g)           -41.50    -44.62   -3.12  H2
  H2O(g)           -1.29     -0.03    1.26  H2O
  O2(g)             2.88     -0.07   -2.96  O2

**For a gas, SI = log10(fugacity). Fugacity = pressure * phi / 1 atm.
  For ideal gases, phi = 1.

Reaction step 4.

Using solution 1.	Seawater water
Using exchange 1.	
Using pure phase assemblage 1.	
Using temperature 1.	

-------------------------------Phase assemblage--------------------------------

                                                      Moles in assemblage
Phase               SI  log IAP  log K(T, P)   Initial       Final       Delta

Calcite           0.00    -8.58     -8.58    1.000e+01   9.813e+00  -1.871e-01
Dolomite          0.00   -17.42    -17.42    1.000e+01   9.786e+00  -2.142e-01

-----------------------------Exchange composition------------------------------

X                1.000e+00 mol

	                               Equiv-    Equivalent      Log 
	Species             Moles      alents      Fraction     Gamma

	CaX2              3.418e-01   6.836e-01   6.836e-01    -0.134
	NaX               1.856e-01   1.856e-01   1.856e-01     0.138
	MgX2              6.542e-02   1.308e-01   1.308e-01     0.123

-----------------------------Solution composition------------------------------

	Elements           Molality       Moles

	C                 6.167e-01   6.154e-01
	Ca                1.964e+00   1.959e+00
	Mg                6.301e-01   6.288e-01
	Na                8.161e-01   8.144e-01

----------------------------Description of solution----------------------------

                                       pH  =   3.881      Charge balance
                                       pe  =  16.453      Adjusted to redox equilibrium
      Specific Conductance (µS/cm,  40°C)  = 93484
                          Density (g/cm³)  =   1.15536
                               Volume (L)  =   0.99491
                        Activity of water  =   0.931
                 Ionic strength (mol/kgw)  =   5.264e+00
                       Mass of water (kg)  =   9.979e-01
                 Total alkalinity (eq/kg)  =   2.314e-01
                       Total CO2 (mol/kg)  =   6.167e-01
                         Temperature (°C)  =  40.00
                  Electrical balance (eq)  =   5.760e+00
 Percent error, 100*(Cat-|An|)/(Cat+|An|)  =  99.74
                               Iterations  =  20
                                  Total H  = 1.110125e+02
                                  Total O  = 5.735255e+01

----------------------------Distribution of species----------------------------

                                               Log       Log       Log    mole V
   Species          Molality    Activity  Molality  Activity     Gamma   cm³/mol

   H+              1.873e-04   1.315e-04    -3.727    -3.881    -0.153      0.00
   OH-             4.419e-10   2.073e-10    -9.355    -9.683    -0.329      4.40
   H2O             5.551e+01   9.313e-01     1.744    -0.031     0.000     18.16
C(-4)         0.000e+00
   CH4             0.000e+00   0.000e+00  -140.642  -140.116     0.526     36.62
C(4)          6.167e-01
   CO2             3.600e-01   1.210e+00    -0.444     0.083     0.526     35.16
   CaHCO3+         1.433e-01   8.706e-02    -0.844    -1.060    -0.216     10.56
   MgHCO3+         8.008e-02   4.034e-02    -1.096    -1.394    -0.298      6.35
   (CO2)2          1.259e-02   4.230e-02    -1.900    -1.374     0.526     70.32
   HCO3-           7.431e-03   4.318e-03    -2.129    -2.365    -0.236     38.35
   NaHCO3          7.470e-04   2.510e-03    -3.127    -2.600     0.526      1.80
   CaCO3           1.900e-06   6.384e-06    -5.721    -5.195     0.526    -14.56
   MgCO3           5.149e-07   1.730e-06    -6.288    -5.762     0.526    -17.10
   NaCO3-          2.913e-08   8.451e-08    -7.536    -7.073     0.463     28.87
   CO3-2           1.728e-08   1.970e-09    -7.762    -8.705    -0.943      3.33
Ca            1.964e+00
   Ca+2            1.820e+00   1.336e+00     0.260     0.126    -0.134    -14.02
   CaHCO3+         1.433e-01   8.706e-02    -0.844    -1.060    -0.216     10.56
   CaCO3           1.900e-06   6.384e-06    -5.721    -5.195     0.526    -14.56
   CaOH+           5.411e-10   1.570e-09    -9.267    -8.804     0.463     (0)  
H(0)          0.000e+00
   H2              0.000e+00   0.000e+00   -44.405   -43.879     0.526     28.59
Mg            6.301e-01
   Mg+2            5.500e-01   7.309e-01    -0.260    -0.136     0.123    -18.46
   MgHCO3+         8.008e-02   4.034e-02    -1.096    -1.394    -0.298      6.35
   MgCO3           5.149e-07   1.730e-06    -6.288    -5.762     0.526    -17.10
   MgOH+           1.088e-07   6.823e-08    -6.963    -7.166    -0.203     (0)  
Na            8.161e-01
   Na+             8.154e-01   1.121e+00    -0.089     0.050     0.138      1.34
   NaHCO3          7.470e-04   2.510e-03    -3.127    -2.600     0.526      1.80
   NaCO3-          2.913e-08   8.451e-08    -7.536    -7.073     0.463     28.87
   NaOH            6.915e-21   2.324e-20   -20.160   -19.634     0.526     (0)  
O(0)          5.010e-01
   O2              2.505e-01   8.418e-01    -0.601    -0.075     0.526     31.40

------------------------------Saturation indices-------------------------------

  Phase               SI** log IAP   log K(313 K,   1 atm)

  Aragonite        -0.13     -8.58   -8.45  CaCO3
  Calcite           0.00     -8.58   -8.58  CaCO3
  CH4(g)         -137.20   -140.12   -2.91  CH4
  CO2(g)            1.71      0.08   -1.63  CO2
  Dolomite          0.00    -17.42  -17.42  CaMg(CO3)2
  H2(g)           -40.75    -43.88   -3.13  H2
  H2O(g)           -1.17     -0.03    1.14  H2O
  O2(g)             2.91     -0.07   -2.98  O2

**For a gas, SI = log10(fugacity). Fugacity = pressure * phi / 1 atm.
  For ideal gases, phi = 1.

Reaction step 5.

Using solution 1.	Seawater water
Using exchange 1.	
Using pure phase assemblage 1.	
Using temperature 1.	

-------------------------------Phase assemblage--------------------------------

                                                      Moles in assemblage
Phase               SI  log IAP  log K(T, P)   Initial       Final       Delta

Calcite           0.00    -8.62     -8.62    1.000e+01   9.756e+00  -2.445e-01
Dolomite          0.00   -17.52    -17.52    1.000e+01   9.817e+00  -1.829e-01

-----------------------------Exchange composition------------------------------

X                1.000e+00 mol

	                               Equiv-    Equivalent      Log 
	Species             Moles      alents      Fraction     Gamma

	CaX2              3.462e-01   6.923e-01   6.923e-01    -0.142
	NaX               1.822e-01   1.822e-01   1.822e-01     0.136
	MgX2              6.272e-02   1.254e-01   1.254e-01     0.117

-----------------------------Solution composition------------------------------

	Elements           Molality       Moles

	C                 6.116e-01   6.104e-01
	Ca                1.985e+00   1.981e+00
	Mg                6.014e-01   6.002e-01
	Na                8.194e-01   8.178e-01

----------------------------Description of solution----------------------------

                                       pH  =   3.844      Charge balance
                                       pe  =  16.120      Adjusted to redox equilibrium
      Specific Conductance (µS/cm,  45°C)  = 100939
                          Density (g/cm³)  =   1.15230
                               Volume (L)  =   0.99751
                        Activity of water  =   0.931
                 Ionic strength (mol/kgw)  =   5.266e+00
                       Mass of water (kg)  =   9.980e-01
                 Total alkalinity (eq/kg)  =   2.212e-01
                       Total CO2 (mol/kg)  =   6.116e-01
                         Temperature (°C)  =  45.00
                  Electrical balance (eq)  =   5.760e+00
 Percent error, 100*(Cat-|An|)/(Cat+|An|)  =  99.76
                               Iterations  =  32
                                  Total H  = 1.110125e+02
                                  Total O  = 5.733733e+01

----------------------------Distribution of species----------------------------

                                               Log       Log       Log    mole V
   Species          Molality    Activity  Molality  Activity     Gamma   cm³/mol

   H+              2.045e-04   1.432e-04    -3.689    -3.844    -0.155      0.00
   OH-             5.626e-10   2.623e-10    -9.250    -9.581    -0.331      4.54
   H2O             5.551e+01   9.313e-01     1.744    -0.031     0.000     18.19
C(-4)         0.000e+00
   CH4             0.000e+00   0.000e+00  -138.320  -137.793     0.527     36.98
C(4)          6.116e-01
   CO2             3.612e-01   1.214e+00    -0.442     0.084     0.527     35.41
   CaHCO3+         1.396e-01   8.447e-02    -0.855    -1.073    -0.218     10.69
   MgHCO3+         7.414e-02   3.714e-02    -1.130    -1.430    -0.300      6.43
   (CO2)2          1.450e-02   4.876e-02    -1.838    -1.312     0.527     70.81
   HCO3-           7.007e-03   4.054e-03    -2.154    -2.392    -0.238     38.21
   NaHCO3          6.831e-04   2.296e-03    -3.166    -2.639     0.527      1.80
   CaCO3           2.001e-06   6.728e-06    -5.699    -5.172     0.527    -14.55
   MgCO3           4.800e-07   1.614e-06    -6.319    -5.792     0.527    -17.10
   NaCO3-          3.299e-08   9.678e-08    -7.482    -7.014     0.467     29.74
   CO3-2           1.608e-08   1.803e-09    -7.794    -8.744    -0.950      2.40
Ca            1.985e+00
   Ca+2            1.846e+00   1.332e+00     0.266     0.124    -0.142    -13.93
   CaHCO3+         1.396e-01   8.447e-02    -0.855    -1.073    -0.218     10.69
   CaCO3           2.001e-06   6.728e-06    -5.699    -5.172     0.527    -14.55
   CaOH+           4.898e-10   1.437e-09    -9.310    -8.843     0.467     (0)  
H(0)          0.000e+00
   H2              0.000e+00   0.000e+00   -43.686   -43.159     0.527     28.59
Mg            6.014e-01
   Mg+2            5.273e-01   6.899e-01    -0.278    -0.161     0.117    -18.61
   MgHCO3+         7.414e-02   3.714e-02    -1.130    -1.430    -0.300      6.43
   MgCO3           4.800e-07   1.614e-06    -6.319    -5.792     0.527    -17.10
   MgOH+           1.416e-07   8.848e-08    -6.849    -7.053    -0.204     (0)  
Na            8.194e-01
   Na+             8.187e-01   1.120e+00    -0.087     0.049     0.136      1.41
   NaHCO3          6.831e-04   2.296e-03    -3.166    -2.639     0.527      1.80
   NaCO3-          3.299e-08   9.678e-08    -7.482    -7.014     0.467     29.74
   NaOH            8.738e-21   2.938e-20   -20.059   -19.532     0.527     (0)  
O(0)          5.010e-01
   O2              2.505e-01   8.421e-01    -0.601    -0.075     0.527     31.67

------------------------------Saturation indices-------------------------------

  Phase               SI** log IAP   log K(318 K,   1 atm)

  Aragonite        -0.13     -8.62   -8.49  CaCO3
  Calcite           0.00     -8.62   -8.62  CaCO3
  CH4(g)         -134.86   -137.79   -2.94  CH4
  CO2(g)            1.75      0.08   -1.67  CO2
  Dolomite          0.00    -17.52  -17.52  CaMg(CO3)2
  H2(g)           -40.03    -43.16   -3.13  H2
  H2O(g)           -1.06     -0.03    1.03  H2O
  O2(g)             2.93     -0.07   -3.01  O2

**For a gas, SI = log10(fugacity). Fugacity = pressure * phi / 1 atm.
  For ideal gases, phi = 1.

Reaction step 6.

Using solution 1.	Seawater water
Using exchange 1.	
Using pure phase assemblage 1.	
Using temperature 1.	

-------------------------------Phase assemblage--------------------------------

                                                      Moles in assemblage
Phase               SI  log IAP  log K(T, P)   Initial       Final       Delta

Calcite           0.00    -8.66     -8.66    1.000e+01   9.723e+00  -2.767e-01
Dolomite          0.00   -17.63    -17.63    1.000e+01   9.836e+00  -1.643e-01

-----------------------------Exchange composition------------------------------

X                1.000e+00 mol

	                               Equiv-    Equivalent      Log 
	Species             Moles      alents      Fraction     Gamma

	CaX2              3.492e-01   6.984e-01   6.984e-01    -0.150
	NaX               1.791e-01   1.791e-01   1.791e-01     0.134
	MgX2              6.124e-02   1.225e-01   1.225e-01     0.110

-----------------------------Solution composition------------------------------

	Elements           Molality       Moles

	C                 6.065e-01   6.054e-01
	Ca                1.996e+00   1.992e+00
	Mg                5.842e-01   5.831e-01
	Na                8.225e-01   8.209e-01

----------------------------Description of solution----------------------------

                                       pH  =   3.811      Charge balance
                                       pe  =  15.795      Adjusted to redox equilibrium
      Specific Conductance (µS/cm,  50°C)  = 108309
                          Density (g/cm³)  =   1.14902
                               Volume (L)  =   1.00016
                        Activity of water  =   0.931
                 Ionic strength (mol/kgw)  =   5.268e+00
                       Mass of water (kg)  =   9.981e-01
                 Total alkalinity (eq/kg)  =   2.111e-01
                       Total CO2 (mol/kg)  =   6.065e-01
                         Temperature (°C)  =  50.00
                  Electrical balance (eq)  =   5.760e+00
 Percent error, 100*(Cat-|An|)/(Cat+|An|)  =  99.77
                               Iterations  =  47
                                  Total H  = 1.110125e+02
                                  Total O  = 5.732232e+01

----------------------------Distribution of species----------------------------

                                               Log       Log       Log    mole V
   Species          Molality    Activity  Molality  Activity     Gamma   cm³/mol

   H+              2.211e-04   1.544e-04    -3.655    -3.811    -0.156      0.00
   OH-             7.124e-10   3.301e-10    -9.147    -9.481    -0.334      4.64
   H2O             5.551e+01   9.314e-01     1.744    -0.031     0.000     18.23
C(-4)         0.000e+00
   CH4             0.000e+00   0.000e+00  -136.078  -135.551     0.527     37.33
C(4)          6.065e-01
   CO2             3.620e-01   1.218e+00    -0.441     0.086     0.527     35.66
   CaHCO3+         1.342e-01   8.087e-02    -0.872    -1.092    -0.220     10.80
   MgHCO3+         6.998e-02   3.486e-02    -1.155    -1.458    -0.303      6.49
   (CO2)2          1.655e-02   5.566e-02    -1.781    -1.254     0.527     71.32
   HCO3-           6.600e-03   3.803e-03    -2.180    -2.420    -0.239     38.06
   NaHCO3          6.240e-04   2.099e-03    -3.205    -2.678     0.527      1.80
   CaCO3           2.107e-06   7.087e-06    -5.676    -5.150     0.527    -14.53
   MgCO3           4.543e-07   1.528e-06    -6.343    -5.816     0.527    -17.10
   NaCO3-          3.701e-08   1.098e-07    -7.432    -6.959     0.472     30.51
   CO3-2           1.496e-08   1.648e-09    -7.825    -8.783    -0.958      1.41
Ca            1.996e+00
   Ca+2            1.861e+00   1.319e+00     0.270     0.120    -0.150    -13.88
   CaHCO3+         1.342e-01   8.087e-02    -0.872    -1.092    -0.220     10.80
   CaCO3           2.107e-06   7.087e-06    -5.676    -5.150     0.527    -14.53
   CaOH+           4.448e-10   1.320e-09    -9.352    -8.879     0.472     (0)  
H(0)          0.000e+00
   H2              0.000e+00   0.000e+00   -42.988   -42.462     0.527     28.59
Mg            5.842e-01
   Mg+2            5.142e-01   6.619e-01    -0.289    -0.179     0.110    -18.77
   MgHCO3+         6.998e-02   3.486e-02    -1.155    -1.458    -0.303      6.49
   MgCO3           4.543e-07   1.528e-06    -6.343    -5.816     0.527    -17.10
   MgOH+           1.868e-07   1.163e-07    -6.729    -6.934    -0.206     (0)  
Na            8.225e-01
   Na+             8.218e-01   1.118e+00    -0.085     0.049     0.134      1.46
   NaHCO3          6.240e-04   2.099e-03    -3.205    -2.678     0.527      1.80
   NaCO3-          3.701e-08   1.098e-07    -7.432    -6.959     0.472     30.51
   NaOH            1.098e-20   3.692e-20   -19.960   -19.433     0.527     (0)  
O(0)          5.010e-01
   O2              2.505e-01   8.424e-01    -0.601    -0.074     0.527     31.92

------------------------------Saturation indices-------------------------------

  Phase               SI** log IAP   log K(323 K,   1 atm)

  Aragonite        -0.13     -8.66   -8.54  CaCO3
  Calcite           0.00     -8.66   -8.66  CaCO3
  CH4(g)         -132.59   -135.55   -2.96  CH4
  CO2(g)            1.80      0.09   -1.71  CO2
  Dolomite          0.00    -17.63  -17.63  CaMg(CO3)2
  H2(g)           -39.33    -42.46   -3.14  H2
  H2O(g)           -0.95     -0.03    0.92  H2O
  O2(g)             2.96     -0.07   -3.03  O2

**For a gas, SI = log10(fugacity). Fugacity = pressure * phi / 1 atm.
  For ideal gases, phi = 1.

Reaction step 7.

Using solution 1.	Seawater water
Using exchange 1.	
Using pure phase assemblage 1.	
Using temperature 1.	

-------------------------------Phase assemblage--------------------------------

                                                      Moles in assemblage
Phase               SI  log IAP  log K(T, P)   Initial       Final       Delta

Calcite           0.00    -8.71     -8.71    1.000e+01   9.714e+00  -2.860e-01
Dolomite          0.00   -17.72    -17.72    1.000e+01   9.843e+00  -1.572e-01

-----------------------------Exchange composition------------------------------

X                1.000e+00 mol

	                               Equiv-    Equivalent      Log 
	Species             Moles      alents      Fraction     Gamma

	CaX2              3.510e-01   7.020e-01   7.020e-01    -0.158
	NaX               1.762e-01   1.762e-01   1.762e-01     0.131
	MgX2              6.091e-02   1.218e-01   1.218e-01     0.102

-----------------------------Solution composition------------------------------

	Elements           Molality       Moles

	C                 6.016e-01   6.005e-01
	Ca                1.996e+00   1.992e+00
	Mg                5.774e-01   5.763e-01
	Na                8.253e-01   8.238e-01

----------------------------Description of solution----------------------------

                                       pH  =   3.782      Charge balance
                                       pe  =  15.476      Adjusted to redox equilibrium
      Specific Conductance (µS/cm,  55°C)  = 115554
                          Density (g/cm³)  =   1.14554
                               Volume (L)  =   1.00288
                        Activity of water  =   0.931
                 Ionic strength (mol/kgw)  =   5.270e+00
                       Mass of water (kg)  =   9.982e-01
                 Total alkalinity (eq/kg)  =   2.015e-01
                       Total CO2 (mol/kg)  =   6.016e-01
                         Temperature (°C)  =  55.00
                  Electrical balance (eq)  =   5.760e+00
 Percent error, 100*(Cat-|An|)/(Cat+|An|)  =  99.79
                               Iterations  =  19
                                  Total H  = 1.110125e+02
                                  Total O  = 5.730783e+01

----------------------------Distribution of species----------------------------

                                               Log       Log       Log    mole V
   Species          Molality    Activity  Molality  Activity     Gamma   cm³/mol

   H+              2.370e-04   1.650e-04    -3.625    -3.782    -0.157      0.00
   OH-             8.974e-10   4.131e-10    -9.047    -9.384    -0.337      4.73
   H2O             5.551e+01   9.314e-01     1.744    -0.031     0.000     18.28
C(-4)         0.000e+00
   CH4             0.000e+00   0.000e+00  -133.912  -133.385     0.527     37.68
C(4)          6.016e-01
   CO2             3.625e-01   1.220e+00    -0.441     0.086     0.527     35.92
   CaHCO3+         1.276e-01   7.659e-02    -0.894    -1.116    -0.222     10.89
   MgHCO3+         6.731e-02   3.334e-02    -1.172    -1.477    -0.305      6.55
   (CO2)2          1.870e-02   6.294e-02    -1.728    -1.201     0.527     71.84
   HCO3-           6.211e-03   3.562e-03    -2.207    -2.448    -0.241     37.96
   NaHCO3          5.695e-04   1.916e-03    -3.245    -2.718     0.527      1.80
   CaCO3           2.213e-06   7.446e-06    -5.655    -5.128     0.527    -14.52
   MgCO3           4.362e-07   1.468e-06    -6.360    -5.833     0.527    -17.10
   NaCO3-          4.113e-08   1.235e-07    -7.386    -6.908     0.478     31.29
   CO3-2           1.390e-08   1.503e-09    -7.857    -8.823    -0.966      0.37
Ca            1.996e+00
   Ca+2            1.868e+00   1.300e+00     0.271     0.114    -0.158    -13.85
   CaHCO3+         1.276e-01   7.659e-02    -0.894    -1.116    -0.222     10.89
   CaCO3           2.213e-06   7.446e-06    -5.655    -5.128     0.527    -14.52
   CaOH+           4.052e-10   1.217e-09    -9.392    -8.915     0.478     (0)  
H(0)          0.000e+00
   H2              0.000e+00   0.000e+00   -42.312   -41.785     0.527     28.58
Mg            5.774e-01
   Mg+2            5.101e-01   6.455e-01    -0.292    -0.190     0.102    -18.94
   MgHCO3+         6.731e-02   3.334e-02    -1.172    -1.477    -0.305      6.55
   MgCO3           4.362e-07   1.468e-06    -6.360    -5.833     0.527    -17.10
   MgOH+           2.500e-07   1.550e-07    -6.602    -6.810    -0.207     (0)  
Na            8.253e-01
   Na+             8.247e-01   1.116e+00    -0.084     0.048     0.131      1.51
   NaHCO3          5.695e-04   1.916e-03    -3.245    -2.718     0.527      1.80
   NaCO3-          4.113e-08   1.235e-07    -7.386    -6.908     0.478     31.29
   NaOH            1.370e-20   4.611e-20   -19.863   -19.336     0.527     (0)  
O(0)          5.009e-01
   O2              2.505e-01   8.428e-01    -0.601    -0.074     0.527     32.16

------------------------------Saturation indices-------------------------------

  Phase               SI** log IAP   log K(328 K,   1 atm)

  Aragonite        -0.12     -8.71   -8.59  CaCO3
  Calcite           0.00     -8.71   -8.71  CaCO3
  CH4(g)         -130.41   -133.38   -2.98  CH4
  CO2(g)            1.84      0.09   -1.75  CO2
  Dolomite          0.00    -17.72  -17.72  CaMg(CO3)2
  H2(g)           -38.65    -41.79   -3.14  H2
  H2O(g)           -0.84     -0.03    0.81  H2O
  O2(g)             2.97     -0.07   -3.05  O2

**For a gas, SI = log10(fugacity). Fugacity = pressure * phi / 1 atm.
  For ideal gases, phi = 1.

Reaction step 8.

Using solution 1.	Seawater water
Using exchange 1.	
Using pure phase assemblage 1.	
Using temperature 1.	

-------------------------------Phase assemblage--------------------------------

                                                      Moles in assemblage
Phase               SI  log IAP  log K(T, P)   Initial       Final       Delta

Calcite           0.00    -8.76     -8.76    1.000e+01   9.726e+00  -2.738e-01
Dolomite         -0.00   -17.82    -17.82    1.000e+01   9.839e+00  -1.611e-01

-----------------------------Exchange composition------------------------------

X                1.000e+00 mol

	                               Equiv-    Equivalent      Log 
	Species             Moles      alents      Fraction     Gamma

	CaX2              3.516e-01   7.031e-01   7.031e-01    -0.166
	NaX               1.736e-01   1.736e-01   1.736e-01     0.129
	MgX2              6.167e-02   1.233e-01   1.233e-01     0.095

-----------------------------Solution composition------------------------------

	Elements           Molality       Moles

	C                 5.970e-01   5.960e-01
	Ca                1.987e+00   1.983e+00
	Mg                5.805e-01   5.794e-01
	Na                8.279e-01   8.264e-01

----------------------------Description of solution----------------------------

                                       pH  =   3.757      Charge balance
                                       pe  =  15.165      Adjusted to redox equilibrium
      Specific Conductance (µS/cm,  60°C)  = 122630
                          Density (g/cm³)  =   1.14190
                               Volume (L)  =   1.00565
                        Activity of water  =   0.931
                 Ionic strength (mol/kgw)  =   5.272e+00
                       Mass of water (kg)  =   9.983e-01
                 Total alkalinity (eq/kg)  =   1.923e-01
                       Total CO2 (mol/kg)  =   5.970e-01
                         Temperature (°C)  =  60.00
                  Electrical balance (eq)  =   5.760e+00
 Percent error, 100*(Cat-|An|)/(Cat+|An|)  =  99.80
                               Iterations  =  47
                                  Total H  = 1.110125e+02
                                  Total O  = 5.729421e+01

----------------------------Distribution of species----------------------------

                                               Log       Log       Log    mole V
   Species          Molality    Activity  Molality  Activity     Gamma   cm³/mol

   H+              2.518e-04   1.748e-04    -3.599    -3.757    -0.158      0.00
   OH-             1.125e-09   5.143e-10    -8.949    -9.289    -0.340      4.77
   H2O             5.551e+01   9.314e-01     1.744    -0.031     0.000     18.32
C(-4)         0.000e+00
   CH4             0.000e+00   0.000e+00  -131.818  -131.291     0.527     38.02
C(4)          5.970e-01
   CO2             3.626e-01   1.221e+00    -0.441     0.087     0.527     36.19
   CaHCO3+         1.203e-01   7.189e-02    -0.920    -1.143    -0.224     10.97
   MgHCO3+         6.595e-02   3.246e-02    -1.181    -1.489    -0.308      6.58
   (CO2)2          2.094e-02   7.048e-02    -1.679    -1.152     0.527     72.38
   HCO3-           5.838e-03   3.332e-03    -2.234    -2.477    -0.244     37.83
   NaHCO3          5.191e-04   1.748e-03    -3.285    -2.758     0.527      1.80
   CaCO3           2.313e-06   7.788e-06    -5.636    -5.109     0.527    -14.51
   MgCO3           4.247e-07   1.430e-06    -6.372    -5.845     0.527    -17.09
   NaCO3-          4.529e-08   1.378e-07    -7.344    -6.861     0.483     31.94
   CO3-2           1.289e-08   1.369e-09    -7.890    -8.864    -0.974     -0.72
Ca            1.987e+00
   Ca+2            1.866e+00   1.273e+00     0.271     0.105    -0.166    -13.86
   CaHCO3+         1.203e-01   7.189e-02    -0.920    -1.143    -0.224     10.97
   CaCO3           2.313e-06   7.788e-06    -5.636    -5.109     0.527    -14.51
   CaOH+           3.701e-10   1.126e-09    -9.432    -8.949     0.483     (0)  
H(0)          0.000e+00
   H2              0.000e+00   0.000e+00   -41.657   -41.129     0.527     28.58
Mg            5.805e-01
   Mg+2            5.145e-01   6.396e-01    -0.289    -0.194     0.095    -19.13
   MgHCO3+         6.595e-02   3.246e-02    -1.181    -1.489    -0.308      6.58
   MgCO3           4.247e-07   1.430e-06    -6.372    -5.845     0.527    -17.09
   MgOH+           3.388e-07   2.093e-07    -6.470    -6.679    -0.209     (0)  
Na            8.279e-01
   Na+             8.274e-01   1.114e+00    -0.082     0.047     0.129      1.55
   NaHCO3          5.191e-04   1.748e-03    -3.285    -2.758     0.527      1.80
   NaCO3-          4.529e-08   1.378e-07    -7.344    -6.861     0.483     31.94
   NaOH            1.701e-20   5.727e-20   -19.769   -19.242     0.527     (0)  
O(0)          5.009e-01
   O2              2.504e-01   8.431e-01    -0.601    -0.074     0.527     32.38

------------------------------Saturation indices-------------------------------

  Phase               SI** log IAP   log K(333 K,   1 atm)

  Aragonite        -0.12     -8.76   -8.64  CaCO3
  Calcite           0.00     -8.76   -8.76  CaCO3
  CH4(g)         -128.30   -131.29   -2.99  CH4
  CO2(g)            1.87      0.09   -1.78  CO2
  Dolomite         -0.00    -17.82  -17.82  CaMg(CO3)2
  H2(g)           -37.99    -41.13   -3.14  H2
  H2O(g)           -0.74     -0.03    0.71  H2O
  O2(g)             2.99     -0.07   -3.06  O2

**For a gas, SI = log10(fugacity). Fugacity = pressure * phi / 1 atm.
  For ideal gases, phi = 1.

Reaction step 9.

Using solution 1.	Seawater water
Using exchange 1.	
Using pure phase assemblage 1.	
Using temperature 1.	

-------------------------------Phase assemblage--------------------------------

                                                      Moles in assemblage
Phase               SI  log IAP  log K(T, P)   Initial       Final       Delta

Calcite           0.00    -8.81     -8.81    1.000e+01   9.760e+00  -2.403e-01
Dolomite         -0.00   -17.91    -17.91    1.000e+01   9.824e+00  -1.758e-01

-----------------------------Exchange composition------------------------------

X                1.000e+00 mol

	                               Equiv-    Equivalent      Log 
	Species             Moles      alents      Fraction     Gamma

	CaX2              3.509e-01   7.018e-01   7.018e-01    -0.175
	NaX               1.711e-01   1.711e-01   1.711e-01     0.126
	MgX2              6.353e-02   1.271e-01   1.271e-01     0.086

-----------------------------Solution composition------------------------------

	Elements           Molality       Moles

	C                 5.928e-01   5.919e-01
	Ca                1.968e+00   1.965e+00
	Mg                5.932e-01   5.922e-01
	Na                8.303e-01   8.289e-01

----------------------------Description of solution----------------------------

                                       pH  =   3.736      Charge balance
                                       pe  =  14.859      Adjusted to redox equilibrium
      Specific Conductance (µS/cm,  65°C)  = 129490
                          Density (g/cm³)  =   1.13811
                               Volume (L)  =   1.00846
                        Activity of water  =   0.931
                 Ionic strength (mol/kgw)  =   5.274e+00
                       Mass of water (kg)  =   9.983e-01
                 Total alkalinity (eq/kg)  =   1.841e-01
                       Total CO2 (mol/kg)  =   5.928e-01
                         Temperature (°C)  =  65.00
                  Electrical balance (eq)  =   5.760e+00
 Percent error, 100*(Cat-|An|)/(Cat+|An|)  =  99.81
                               Iterations  =  19
                                  Total H  = 1.110125e+02
                                  Total O  = 5.728182e+01

----------------------------Distribution of species----------------------------

                                               Log       Log       Log    mole V
   Species          Molality    Activity  Molality  Activity     Gamma   cm³/mol

   H+              2.655e-04   1.838e-04    -3.576    -3.736    -0.160      0.00
   OH-             1.403e-09   6.370e-10    -8.853    -9.196    -0.343      4.80
   H2O             5.551e+01   9.314e-01     1.744    -0.031     0.000     18.37
C(-4)         0.000e+00
   CH4             0.000e+00   0.000e+00  -129.794  -129.267     0.527     38.37
C(4)          5.928e-01
   CO2             3.621e-01   1.220e+00    -0.441     0.086     0.527     36.47
   CaHCO3+         1.126e-01   6.700e-02    -0.948    -1.174    -0.225     11.05
   MgHCO3+         6.576e-02   3.216e-02    -1.182    -1.493    -0.311      6.61
   (CO2)2          2.321e-02   7.817e-02    -1.634    -1.107     0.527     72.95
   HCO3-           5.482e-03   3.114e-03    -2.261    -2.507    -0.246     37.71
   NaHCO3          4.728e-04   1.592e-03    -3.325    -2.798     0.527      1.80
   CaCO3           2.404e-06   8.097e-06    -5.619    -5.092     0.527    -14.50
   MgCO3           4.193e-07   1.412e-06    -6.377    -5.850     0.527    -17.09
   NaCO3-          4.945e-08   1.523e-07    -7.306    -6.817     0.489     32.57
   CO3-2           1.195e-08   1.244e-09    -7.923    -8.905    -0.983     -1.85
Ca            1.968e+00
   Ca+2            1.856e+00   1.240e+00     0.269     0.094    -0.175    -13.89
   CaHCO3+         1.126e-01   6.700e-02    -0.948    -1.174    -0.225     11.05
   CaCO3           2.404e-06   8.097e-06    -5.619    -5.092     0.527    -14.50
   CaOH+           3.387e-10   1.043e-09    -9.470    -8.982     0.489     (0)  
H(0)          0.000e+00
   H2              0.000e+00   0.000e+00   -41.020   -40.493     0.527     28.58
Mg            5.932e-01
   Mg+2            5.275e-01   6.437e-01    -0.278    -0.191     0.086    -19.33
   MgHCO3+         6.576e-02   3.216e-02    -1.182    -1.493    -0.311      6.61
   MgOH+           4.653e-07   2.862e-07    -6.332    -6.543    -0.211     (0)  
   MgCO3           4.193e-07   1.412e-06    -6.377    -5.850     0.527    -17.09
Na            8.303e-01
   Na+             8.298e-01   1.110e+00    -0.081     0.045     0.126      1.59
   NaHCO3          4.728e-04   1.592e-03    -3.325    -2.798     0.527      1.80
   NaCO3-          4.945e-08   1.523e-07    -7.306    -6.817     0.489     32.57
   NaOH            2.100e-20   7.072e-20   -19.678   -19.150     0.527     (0)  
O(0)          5.008e-01
   O2              2.504e-01   8.434e-01    -0.601    -0.074     0.527     32.59

------------------------------Saturation indices-------------------------------

  Phase               SI** log IAP   log K(338 K,   1 atm)

  Aragonite        -0.12     -8.81   -8.69  CaCO3
  Calcite           0.00     -8.81   -8.81  CaCO3
  CH4(g)         -126.27   -129.27   -3.00  CH4
  CO2(g)            1.90      0.09   -1.82  CO2
  Dolomite         -0.00    -17.91  -17.91  CaMg(CO3)2
  H2(g)           -37.35    -40.49   -3.14  H2
  H2O(g)           -0.64     -0.03    0.61  H2O
  O2(g)             3.00     -0.07   -3.08  O2

**For a gas, SI = log10(fugacity). Fugacity = pressure * phi / 1 atm.
  For ideal gases, phi = 1.

Reaction step 10.

Using solution 1.	Seawater water
Using exchange 1.	
Using pure phase assemblage 1.	
Using temperature 1.	

-------------------------------Phase assemblage--------------------------------

                                                      Moles in assemblage
Phase               SI  log IAP  log K(T, P)   Initial       Final       Delta

Calcite           0.00    -8.87     -8.87    1.000e+01   9.815e+00  -1.853e-01
Dolomite          0.00   -18.00    -18.00    1.000e+01   9.799e+00  -2.015e-01

-----------------------------Exchange composition------------------------------

X                1.000e+00 mol

	                               Equiv-    Equivalent      Log 
	Species             Moles      alents      Fraction     Gamma

	CaX2              3.490e-01   6.980e-01   6.980e-01    -0.184
	NaX               1.688e-01   1.688e-01   1.688e-01     0.124
	MgX2              6.657e-02   1.331e-01   1.331e-01     0.078

-----------------------------Solution composition------------------------------

	Elements           Molality       Moles

	C                 5.892e-01   5.882e-01
	Ca                1.941e+00   1.938e+00
	Mg                6.159e-01   6.149e-01
	Na                8.325e-01   8.312e-01

----------------------------Description of solution----------------------------

                                       pH  =   3.717      Charge balance
                                       pe  =  14.560      Adjusted to redox equilibrium
      Specific Conductance (µS/cm,  70°C)  = 136086
                          Density (g/cm³)  =   1.13417
                               Volume (L)  =   1.01134
                        Activity of water  =   0.931
                 Ionic strength (mol/kgw)  =   5.275e+00
                       Mass of water (kg)  =   9.984e-01
                 Total alkalinity (eq/kg)  =   1.768e-01
                       Total CO2 (mol/kg)  =   5.892e-01
                         Temperature (°C)  =  70.00
                  Electrical balance (eq)  =   5.760e+00
 Percent error, 100*(Cat-|An|)/(Cat+|An|)  =  99.82
                               Iterations  =  24
                                  Total H  = 1.110125e+02
                                  Total O  = 5.727098e+01

----------------------------Distribution of species----------------------------

                                               Log       Log       Log    mole V
   Species          Molality    Activity  Molality  Activity     Gamma   cm³/mol

   H+              2.778e-04   1.917e-04    -3.556    -3.717    -0.161      0.00
   OH-             1.742e-09   7.852e-10    -8.759    -9.105    -0.346      4.81
   H2O             5.551e+01   9.315e-01     1.744    -0.031     0.000     18.43
C(-4)         0.000e+00
   CH4             0.000e+00   0.000e+00  -127.836  -127.309     0.527     38.72
C(4)          5.892e-01
   CO2             3.611e-01   1.217e+00    -0.442     0.085     0.527     36.77
   CaHCO3+         1.048e-01   6.208e-02    -0.980    -1.207    -0.227     11.11
   MgHCO3+         6.669e-02   3.240e-02    -1.176    -1.489    -0.313      6.63
   (CO2)2          2.549e-02   8.587e-02    -1.594    -1.066     0.527     73.54
   HCO3-           5.143e-03   2.906e-03    -2.289    -2.537    -0.248     37.62
   NaHCO3          4.302e-04   1.449e-03    -3.366    -2.839     0.527      1.80
   CaCO3           2.479e-06   8.353e-06    -5.606    -5.078     0.527    -14.49
   MgCO3           4.196e-07   1.414e-06    -6.377    -5.850     0.527    -17.09
   NaCO3-          5.355e-08   1.672e-07    -7.271    -6.777     0.494     33.19
   CO3-2           1.107e-08   1.129e-09    -7.956    -8.947    -0.992     -3.03
Ca            1.941e+00
   Ca+2            1.836e+00   1.201e+00     0.264     0.080    -0.184    -13.93
   CaHCO3+         1.048e-01   6.208e-02    -0.980    -1.207    -0.227     11.11
   CaCO3           2.479e-06   8.353e-06    -5.606    -5.078     0.527    -14.49
   CaOH+           3.104e-10   9.690e-10    -9.508    -9.014     0.494     (0)  
H(0)          0.000e+00
   H2              0.000e+00   1.334e-40   -40.402   -39.875     0.527     28.58
Mg            6.159e-01
   Mg+2            5.492e-01   6.573e-01    -0.260    -0.182     0.078    -19.53
   MgHCO3+         6.669e-02   3.240e-02    -1.176    -1.489    -0.313      6.63
   MgOH+           6.466e-07   3.961e-07    -6.189    -6.402    -0.213     (0)  
   MgCO3           4.196e-07   1.414e-06    -6.377    -5.850     0.527    -17.09
Na            8.325e-01
   Na+             8.321e-01   1.106e+00    -0.080     0.044     0.124      1.62
   NaHCO3          4.302e-04   1.449e-03    -3.366    -2.839     0.527      1.80
   NaCO3-          5.355e-08   1.672e-07    -7.271    -6.777     0.494     33.19
   NaOH            2.579e-20   8.688e-20   -19.589   -19.061     0.527     (0)  
O(0)          5.008e-01
   O2              2.504e-01   8.436e-01    -0.601    -0.074     0.527     32.79

------------------------------Saturation indices-------------------------------

  Phase               SI** log IAP   log K(343 K,   1 atm)

  Aragonite        -0.12     -8.87   -8.75  CaCO3
  Calcite           0.00     -8.87   -8.87  CaCO3
  CH4(g)         -124.30   -127.31   -3.01  CH4
  CO2(g)            1.93      0.09   -1.85  CO2
  Dolomite          0.00    -18.00  -18.00  CaMg(CO3)2
  H2(g)           -36.74    -39.87   -3.14  H2
  H2O(g)           -0.55     -0.03    0.51  H2O
  O2(g)             3.02     -0.07   -3.09  O2

**For a gas, SI = log10(fugacity). Fugacity = pressure * phi / 1 atm.
  For ideal gases, phi = 1.

Reaction step 11.

Using solution 1.	Seawater water
Using exchange 1.	
Using pure phase assemblage 1.	
Using temperature 1.	

-------------------------------Phase assemblage--------------------------------

                                                      Moles in assemblage
Phase               SI  log IAP  log K(T, P)   Initial       Final       Delta

Calcite           0.00    -8.93     -8.93    1.000e+01   9.892e+00  -1.076e-01
Dolomite         -0.00   -18.08    -18.08    1.000e+01   9.761e+00  -2.388e-01

-----------------------------Exchange composition------------------------------

X                1.000e+00 mol

	                               Equiv-    Equivalent      Log 
	Species             Moles      alents      Fraction     Gamma

	CaX2              3.457e-01   6.915e-01   6.915e-01    -0.194
	NaX               1.668e-01   1.668e-01   1.668e-01     0.121
	MgX2              7.088e-02   1.418e-01   1.418e-01     0.069

-----------------------------Solution composition------------------------------

	Elements           Molality       Moles

	C                 5.862e-01   5.853e-01
	Ca                1.904e+00   1.901e+00
	Mg                6.489e-01   6.479e-01
	Na                8.345e-01   8.332e-01

----------------------------Description of solution----------------------------

                                       pH  =   3.703      Charge balance
                                       pe  =  14.267      Adjusted to redox equilibrium
      Specific Conductance (µS/cm,  75°C)  = 142369
                          Density (g/cm³)  =   1.13012
                               Volume (L)  =   1.01424
                        Activity of water  =   0.931
                 Ionic strength (mol/kgw)  =   5.276e+00
                       Mass of water (kg)  =   9.985e-01
                 Total alkalinity (eq/kg)  =   1.708e-01
                       Total CO2 (mol/kg)  =   5.862e-01
                         Temperature (°C)  =  75.00
                  Electrical balance (eq)  =   5.760e+00
 Percent error, 100*(Cat-|An|)/(Cat+|An|)  =  99.83
                               Iterations  =  32
                                  Total H  = 1.110125e+02
                                  Total O  = 5.726201e+01

----------------------------Distribution of species----------------------------

                                               Log       Log       Log    mole V
   Species          Molality    Activity  Molality  Activity     Gamma   cm³/mol

   H+              2.885e-04   1.984e-04    -3.540    -3.703    -0.163      0.00
   OH-             2.155e-09   9.638e-10    -8.667    -9.016    -0.349      4.79
   H2O             5.551e+01   9.315e-01     1.744    -0.031     0.000     18.48
C(-4)         0.000e+00
   CH4             0.000e+00   0.000e+00  -125.942  -125.414     0.528     39.08
C(4)          5.862e-01
   CO2             3.596e-01   1.212e+00    -0.444     0.083     0.528     37.08
   CaHCO3+         9.715e-02   5.726e-02    -1.013    -1.242    -0.230     11.17
   MgHCO3+         6.872e-02   3.317e-02    -1.163    -1.479    -0.316      6.63
   (CO2)2          2.773e-02   9.344e-02    -1.557    -1.029     0.528     74.15
   HCO3-           4.823e-03   2.711e-03    -2.317    -2.567    -0.250     37.51
   NaHCO3          3.913e-04   1.318e-03    -3.408    -2.880     0.528      1.80
   CaCO3           2.534e-06   8.540e-06    -5.596    -5.069     0.528    -14.48
   MgCO3           4.254e-07   1.433e-06    -6.371    -5.844     0.528    -17.09
   NaCO3-          5.759e-08   1.822e-07    -7.240    -6.739     0.500     33.70
   CO3-2           1.026e-08   1.024e-09    -7.989    -8.990    -1.001     -4.25
Ca            1.904e+00
   Ca+2            1.806e+00   1.156e+00     0.257     0.063    -0.194    -14.01
   CaHCO3+         9.715e-02   5.726e-02    -1.013    -1.242    -0.230     11.17
   CaCO3           2.534e-06   8.540e-06    -5.596    -5.069     0.528    -14.48
   CaOH+           2.848e-10   9.010e-10    -9.545    -9.045     0.500     (0)  
H(0)          3.154e-40
   H2              1.577e-40   5.315e-40   -39.802   -39.275     0.528     28.58
Mg            6.489e-01
   Mg+2            5.802e-01   6.805e-01    -0.236    -0.167     0.069    -19.75
   MgHCO3+         6.872e-02   3.317e-02    -1.163    -1.479    -0.316      6.63
   MgOH+           9.091e-07   5.543e-07    -6.041    -6.256    -0.215     (0)  
   MgCO3           4.254e-07   1.433e-06    -6.371    -5.844     0.528    -17.09
Na            8.345e-01
   Na+             8.341e-01   1.102e+00    -0.079     0.042     0.121      1.65
   NaHCO3          3.913e-04   1.318e-03    -3.408    -2.880     0.528      1.80
   NaCO3-          5.759e-08   1.822e-07    -7.240    -6.739     0.500     33.70
   NaOH            3.152e-20   1.062e-19   -19.501   -18.974     0.528     (0)  
O(0)          5.008e-01
   O2              2.504e-01   8.437e-01    -0.601    -0.074     0.528     32.99

------------------------------Saturation indices-------------------------------

  Phase               SI** log IAP   log K(348 K,   1 atm)

  Aragonite        -0.11     -8.93   -8.81  CaCO3
  Calcite           0.00     -8.93   -8.93  CaCO3
  CH4(g)         -122.40   -125.41   -3.01  CH4
  CO2(g)            1.96      0.08   -1.87  CO2
  Dolomite         -0.00    -18.08  -18.08  CaMg(CO3)2
  H2(g)           -36.14    -39.27   -3.13  H2
  H2O(g)           -0.45     -0.03    0.42  H2O
  O2(g)             3.02     -0.07   -3.10  O2

**For a gas, SI = log10(fugacity). Fugacity = pressure * phi / 1 atm.
  For ideal gases, phi = 1.

Reaction step 12.

Using solution 1.	Seawater water
Using exchange 1.	
Using pure phase assemblage 1.	
Using temperature 1.	

-------------------------------Phase assemblage--------------------------------

                                                      Moles in assemblage
Phase               SI  log IAP  log K(T, P)   Initial       Final       Delta

Calcite           0.00    -8.99     -8.99    1.000e+01   9.995e+00  -5.474e-03
Dolomite          0.00   -18.17    -18.17    1.000e+01   9.711e+00  -2.887e-01

-----------------------------Exchange composition------------------------------

X                1.000e+00 mol

	                               Equiv-    Equivalent      Log 
	Species             Moles      alents      Fraction     Gamma

	CaX2              3.409e-01   6.818e-01   6.818e-01    -0.204
	NaX               1.649e-01   1.649e-01   1.649e-01     0.118
	MgX2              7.662e-02   1.532e-01   1.532e-01     0.060

-----------------------------Solution composition------------------------------

	Elements           Molality       Moles

	C                 5.838e-01   5.830e-01
	Ca                1.856e+00   1.853e+00
	Mg                6.932e-01   6.921e-01
	Na                8.363e-01   8.351e-01

----------------------------Description of solution----------------------------

                                       pH  =   3.691      Charge balance
                                       pe  =  13.979      Adjusted to redox equilibrium
      Specific Conductance (µS/cm,  80°C)  = 148284
                          Density (g/cm³)  =   1.12595
                               Volume (L)  =   1.01718
                        Activity of water  =   0.932
                 Ionic strength (mol/kgw)  =   5.276e+00
                       Mass of water (kg)  =   9.985e-01
                 Total alkalinity (eq/kg)  =   1.662e-01
                       Total CO2 (mol/kg)  =   5.838e-01
                         Temperature (°C)  =  80.00
                  Electrical balance (eq)  =   5.760e+00
 Percent error, 100*(Cat-|An|)/(Cat+|An|)  =  99.84
                               Iterations  =  18
                                  Total H  = 1.110125e+02
                                  Total O  = 5.725516e+01

----------------------------Distribution of species----------------------------

                                               Log       Log       Log    mole V
   Species          Molality    Activity  Molality  Activity     Gamma   cm³/mol

   H+              2.974e-04   2.038e-04    -3.527    -3.691    -0.164      0.00
   OH-             2.655e-09   1.178e-09    -8.576    -8.929    -0.353      4.75
   H2O             5.551e+01   9.315e-01     1.744    -0.031     0.000     18.54
C(-4)         0.000e+00
   CH4             0.000e+00   0.000e+00  -124.107  -123.580     0.528     39.45
C(4)          5.838e-01
   CO2             3.575e-01   1.205e+00    -0.447     0.081     0.528     37.40
   CaHCO3+         8.975e-02   5.264e-02    -1.047    -1.279    -0.232     11.22
   MgHCO3+         7.189e-02   3.445e-02    -1.143    -1.463    -0.319      6.63
   (CO2)2          2.989e-02   1.007e-01    -1.524    -0.997     0.528     74.80
   HCO3-           4.522e-03   2.528e-03    -2.345    -2.597    -0.253     37.40
   NaHCO3          3.558e-04   1.199e-03    -3.449    -2.921     0.528      1.80
   CaCO3           2.564e-06   8.641e-06    -5.591    -5.063     0.528    -14.47
   MgCO3           4.368e-07   1.472e-06    -6.360    -5.832     0.528    -17.08
   NaCO3-          6.156e-08   1.975e-07    -7.211    -6.705     0.506     34.18
   CO3-2           9.512e-09   9.292e-10    -8.022    -9.032    -1.010     -5.50
Ca            1.856e+00
   Ca+2            1.766e+00   1.105e+00     0.247     0.043    -0.204    -14.09
   CaHCO3+         8.975e-02   5.264e-02    -1.047    -1.279    -0.232     11.22
   CaCO3           2.564e-06   8.641e-06    -5.591    -5.063     0.528    -14.47
   CaOH+           2.613e-10   8.382e-10    -9.583    -9.077     0.506     (0)  
H(0)          1.208e-39
   H2              6.042e-40   2.036e-39   -39.219   -38.691     0.528     28.57
Mg            6.932e-01
   Mg+2            6.213e-01   7.134e-01    -0.207    -0.147     0.060    -19.97
   MgHCO3+         7.189e-02   3.445e-02    -1.143    -1.463    -0.319      6.63
   MgOH+           1.292e-06   7.842e-07    -5.889    -6.106    -0.217     (0)  
   MgCO3           4.368e-07   1.472e-06    -6.360    -5.832     0.528    -17.08
Na            8.363e-01
   Na+             8.360e-01   1.097e+00    -0.078     0.040     0.118      1.68
   NaHCO3          3.558e-04   1.199e-03    -3.449    -2.921     0.528      1.80
   NaCO3-          6.156e-08   1.975e-07    -7.211    -6.705     0.506     34.18
   NaOH            3.836e-20   1.293e-19   -19.416   -18.888     0.528     (0)  
O(0)          5.008e-01
   O2              2.504e-01   8.438e-01    -0.601    -0.074     0.528     33.17

------------------------------Saturation indices-------------------------------

  Phase               SI** log IAP   log K(353 K,   1 atm)

  Aragonite        -0.11     -8.99   -8.88  CaCO3
  Calcite           0.00     -8.99   -8.99  CaCO3
  CH4(g)         -120.56   -123.58   -3.02  CH4
  CO2(g)            1.98      0.08   -1.90  CO2
  Dolomite          0.00    -18.17  -18.17  CaMg(CO3)2
  H2(g)           -35.56    -38.69   -3.13  H2
  H2O(g)           -0.36     -0.03    0.33  H2O
  O2(g)             3.03     -0.07   -3.11  O2

**For a gas, SI = log10(fugacity). Fugacity = pressure * phi / 1 atm.
  For ideal gases, phi = 1.

Reaction step 13.

Using solution 1.	Seawater water
Using exchange 1.	
Using pure phase assemblage 1.	
Using temperature 1.	

-------------------------------Phase assemblage--------------------------------

                                                      Moles in assemblage
Phase               SI  log IAP  log K(T, P)   Initial       Final       Delta

Calcite           0.00    -9.05     -9.05    1.000e+01   1.012e+01   1.233e-01
Dolomite          0.00   -18.25    -18.25    1.000e+01   9.648e+00  -3.524e-01

-----------------------------Exchange composition------------------------------

X                1.000e+00 mol

	                               Equiv-    Equivalent      Log 
	Species             Moles      alents      Fraction     Gamma

	CaX2              3.344e-01   6.688e-01   6.688e-01    -0.214
	NaX               1.633e-01   1.633e-01   1.633e-01     0.115
	MgX2              8.397e-02   1.679e-01   1.679e-01     0.050

-----------------------------Solution composition------------------------------

	Elements           Molality       Moles

	C                 5.823e-01   5.815e-01
	Ca                1.797e+00   1.795e+00
	Mg                7.495e-01   7.484e-01
	Na                8.379e-01   8.367e-01

----------------------------Description of solution----------------------------

                                       pH  =   3.683      Charge balance
                                       pe  =  13.696      Adjusted to redox equilibrium
      Specific Conductance (µS/cm,  85°C)  = 153777
                          Density (g/cm³)  =   1.12167
                               Volume (L)  =   1.02014
                        Activity of water  =   0.932
                 Ionic strength (mol/kgw)  =   5.276e+00
                       Mass of water (kg)  =   9.985e-01
                 Total alkalinity (eq/kg)  =   1.632e-01
                       Total CO2 (mol/kg)  =   5.823e-01
                         Temperature (°C)  =  85.00
                  Electrical balance (eq)  =   5.760e+00
 Percent error, 100*(Cat-|An|)/(Cat+|An|)  =  99.85
                               Iterations  =  29
                                  Total H  = 1.110125e+02
                                  Total O  = 5.725067e+01

----------------------------Distribution of species----------------------------

                                               Log       Log       Log    mole V
   Species          Molality    Activity  Molality  Activity     Gamma   cm³/mol

   H+              3.041e-04   2.077e-04    -3.517    -3.683    -0.166      0.00
   OH-             3.263e-09   1.437e-09    -8.486    -8.843    -0.356      4.69
   H2O             5.551e+01   9.315e-01     1.744    -0.031     0.000     18.60
C(-4)         0.000e+00
   CH4             0.000e+00   0.000e+00  -122.331  -121.803     0.528     39.83
C(4)          5.823e-01
   CO2             3.549e-01   1.196e+00    -0.450     0.078     0.528     37.74
   CaHCO3+         8.269e-02   4.825e-02    -1.083    -1.317    -0.234     11.26
   MgHCO3+         7.627e-02   3.629e-02    -1.118    -1.440    -0.323      6.62
   (CO2)2          3.193e-02   1.076e-01    -1.496    -0.968     0.528     75.48
   HCO3-           4.243e-03   2.359e-03    -2.372    -2.627    -0.255     37.30
   NaHCO3          3.237e-04   1.091e-03    -3.490    -2.962     0.528      1.80
   CaCO3           2.565e-06   8.644e-06    -5.591    -5.063     0.528    -14.46
   MgCO3           4.542e-07   1.531e-06    -6.343    -5.815     0.528    -17.08
   NaCO3-          6.549e-08   2.130e-07    -7.184    -6.672     0.512     34.63
   CO3-2           8.837e-09   8.441e-10    -8.054    -9.074    -1.020     -6.80
Ca            1.797e+00
   Ca+2            1.715e+00   1.047e+00     0.234     0.020    -0.214    -14.20
   CaHCO3+         8.269e-02   4.825e-02    -1.083    -1.317    -0.234     11.26
   CaCO3           2.565e-06   8.644e-06    -5.591    -5.063     0.528    -14.46
   CaOH+           2.396e-10   7.794e-10    -9.621    -9.108     0.512     (0)  
H(0)          4.459e-39
   H2              2.230e-39   7.514e-39   -38.652   -38.124     0.528     28.57
Mg            7.495e-01
   Mg+2            6.733e-01   7.561e-01    -0.172    -0.121     0.050    -20.21
   MgHCO3+         7.627e-02   3.629e-02    -1.118    -1.440    -0.323      6.62
   MgOH+           1.854e-06   1.120e-06    -5.732    -5.951    -0.219     (0)  
   MgCO3           4.542e-07   1.531e-06    -6.343    -5.815     0.528    -17.08
Na            8.379e-01
   Na+             8.376e-01   1.091e+00    -0.077     0.038     0.115      1.71
   NaHCO3          3.237e-04   1.091e-03    -3.490    -2.962     0.528      1.80
   NaCO3-          6.549e-08   2.130e-07    -7.184    -6.672     0.512     34.63
   NaOH            4.652e-20   1.568e-19   -19.332   -18.805     0.528     (0)  
O(0)          5.007e-01
   O2              2.504e-01   8.438e-01    -0.601    -0.074     0.528     33.36

------------------------------Saturation indices-------------------------------

  Phase               SI** log IAP   log K(358 K,   1 atm)

  Aragonite        -0.11     -9.05   -8.95  CaCO3
  Calcite           0.00     -9.05   -9.05  CaCO3
  CH4(g)         -118.79   -121.80   -3.02  CH4
  CO2(g)            2.00      0.08   -1.92  CO2
  Dolomite          0.00    -18.25  -18.25  CaMg(CO3)2
  H2(g)           -35.00    -38.12   -3.12  H2
  H2O(g)           -0.28     -0.03    0.25  H2O
  O2(g)             3.04     -0.07   -3.11  O2

**For a gas, SI = log10(fugacity). Fugacity = pressure * phi / 1 atm.
  For ideal gases, phi = 1.

Reaction step 14.

Using solution 1.	Seawater water
Using exchange 1.	
Using pure phase assemblage 1.	
Using temperature 1.	

-------------------------------Phase assemblage--------------------------------

                                                      Moles in assemblage
Phase               SI  log IAP  log K(T, P)   Initial       Final       Delta

Calcite           0.00    -9.12     -9.12    1.000e+01   1.028e+01   2.814e-01
Dolomite          0.00   -18.33    -18.33    1.000e+01   9.569e+00  -4.311e-01

-----------------------------Exchange composition------------------------------

X                1.000e+00 mol

	                               Equiv-    Equivalent      Log 
	Species             Moles      alents      Fraction     Gamma

	CaX2              3.259e-01   6.518e-01   6.518e-01    -0.225
	NaX               1.619e-01   1.619e-01   1.619e-01     0.112
	MgX2              9.318e-02   1.864e-01   1.864e-01     0.040

-----------------------------Solution composition------------------------------

	Elements           Molality       Moles

	C                 5.817e-01   5.808e-01
	Ca                1.726e+00   1.724e+00
	Mg                8.191e-01   8.180e-01
	Na                8.394e-01   8.381e-01

----------------------------Description of solution----------------------------

                                       pH  =   3.678      Charge balance
                                       pe  =  13.418      Adjusted to redox equilibrium
      Specific Conductance (µS/cm,  90°C)  = 158790
                          Density (g/cm³)  =   1.11727
                               Volume (L)  =   1.02312
                        Activity of water  =   0.932
                 Ionic strength (mol/kgw)  =   5.276e+00
                       Mass of water (kg)  =   9.985e-01
                 Total alkalinity (eq/kg)  =   1.620e-01
                       Total CO2 (mol/kg)  =   5.817e-01
                         Temperature (°C)  =  90.00
                  Electrical balance (eq)  =   5.760e+00
 Percent error, 100*(Cat-|An|)/(Cat+|An|)  =  99.86
                               Iterations  =  21
                                  Total H  = 1.110125e+02
                                  Total O  = 5.724879e+01

----------------------------Distribution of species----------------------------

                                               Log       Log       Log    mole V
   Species          Molality    Activity  Molality  Activity     Gamma   cm³/mol

   H+              3.086e-04   2.099e-04    -3.511    -3.678    -0.167      0.00
   OH-             4.001e-09   1.747e-09    -8.398    -8.758    -0.360      4.62
   H2O             5.551e+01   9.316e-01     1.744    -0.031     0.000     18.66
C(-4)         0.000e+00
   CH4             0.000e+00   0.000e+00  -120.610  -120.082     0.528     40.22
C(4)          5.817e-01
   CO2             3.518e-01   1.185e+00    -0.454     0.074     0.528     38.10
   MgHCO3+         8.196e-02   3.871e-02    -1.086    -1.412    -0.326      6.60
   CaHCO3+         7.602e-02   4.412e-02    -1.119    -1.355    -0.236     11.29
   (CO2)2          3.382e-02   1.139e-01    -1.471    -0.943     0.528     76.21
   HCO3-           3.985e-03   2.203e-03    -2.400    -2.657    -0.258     37.20
   NaHCO3          2.949e-04   9.936e-04    -3.530    -3.003     0.528      1.80
[...]
                 Total alkalinity (eq/kg)  =   1.698e-03
                       Total CO2 (mol/kg)  =   2.247e-03
                         Temperature (°C)  =  80.00
                           Pressure (atm)  = 100.00
                  Electrical balance (eq)  =   7.966e-04
 Percent error, 100*(Cat-|An|)/(Cat+|An|)  =   0.07
                               Iterations  =  15
                                  Total H  = 1.110148e+02
                                  Total O  = 5.562978e+01

----------------------------Distribution of species----------------------------

                                               Log       Log       Log    mole V
   Species          Molality    Activity  Molality  Activity     Gamma   cm³/mol

   OH-             1.129e-06   6.557e-07    -5.947    -6.183    -0.236     -3.07
   H+              5.637e-07   4.149e-07    -6.249    -6.382    -0.133      0.00
   H2O             5.551e+01   9.806e-01     1.744    -0.009     0.000     18.45
C(-4)         5.264e-29
   CH4             5.264e-29   6.139e-29   -28.279   -28.212     0.067     39.41
C(4)          2.247e-03
   HCO3-           1.236e-03   8.049e-04    -2.908    -3.094    -0.186     27.98
   CO2             5.789e-04   6.751e-04    -3.237    -3.171     0.067     37.20
   CaHCO3+         1.749e-04   1.170e-04    -3.757    -3.932    -0.175     11.19
   MgHCO3+         1.252e-04   7.538e-05    -3.902    -4.123    -0.220      6.61
   NaHCO3          1.076e-04   1.255e-04    -3.968    -3.901     0.067      1.80
   NaCO3-          1.390e-05   1.004e-05    -4.857    -4.998    -0.142      5.03
   CaCO3           8.812e-06   1.028e-05    -5.055    -4.988     0.067    -13.86
   MgCO3           1.467e-06   1.711e-06    -5.834    -5.767     0.067    -16.42
   CO3-2           9.018e-07   1.623e-07    -6.045    -6.790    -0.745     -4.52
   (CO2)2          2.711e-08   3.162e-08    -7.567    -7.500     0.067     74.40
Ca            3.933e-02
   Ca+2            3.591e-02   7.695e-03    -1.445    -2.114    -0.669    -16.01
   CaSO4           3.236e-03   3.774e-03    -2.490    -2.423     0.067      8.84
   CaHCO3+         1.749e-04   1.170e-04    -3.757    -3.932    -0.175     11.19
   CaCO3           8.812e-06   1.028e-05    -5.055    -4.988     0.067    -13.86
   CaHSO4+         4.251e-08   3.069e-08    -7.371    -7.513    -0.142     (0)  
   CaOH+           4.216e-09   3.043e-09    -8.375    -8.517    -0.142     (0)  
Cl            5.657e-01
   Cl-             5.657e-01   3.407e-01    -0.247    -0.468    -0.220     18.54
H(0)          1.518e-14
   H2              7.589e-15   8.851e-15   -14.120   -14.053     0.067     28.53
K             1.058e-02
   K+              1.029e-02   6.116e-03    -1.988    -2.214    -0.226     10.91
   KSO4-           2.897e-04   1.887e-04    -3.538    -3.724    -0.186     34.91
Mg            2.604e-02
   Mg+2            1.964e-02   4.901e-03    -1.707    -2.310    -0.603    -21.31
   MgSO4           6.264e-03   7.306e-03    -2.203    -2.136     0.067      7.19
   MgHCO3+         1.252e-04   7.538e-05    -3.902    -4.123    -0.220      6.61
   MgOH+           4.042e-06   2.758e-06    -5.393    -5.559    -0.166     (0)  
   MgCO3           1.467e-06   1.711e-06    -5.834    -5.767     0.067    -16.42
Na            4.854e-01
   Na+             4.785e-01   3.285e-01    -0.320    -0.483    -0.163      1.16
   NaSO4-          6.800e-03   4.429e-03    -2.167    -2.354    -0.186     17.55
   NaHCO3          1.076e-04   1.255e-04    -3.968    -3.901     0.067      1.80
   NaCO3-          1.390e-05   1.004e-05    -4.857    -4.998    -0.142      5.03
   NaOH            1.835e-17   2.140e-17   -16.736   -16.670     0.067     (0)  
O(0)          0.000e+00
   O2              0.000e+00   0.000e+00   -49.451   -49.384     0.067     32.89
S(-2)         2.774e-25
   HS-             1.649e-25   9.580e-26   -24.783   -25.019    -0.236     21.93
   H2S             1.125e-25   1.312e-25   -24.949   -24.882     0.067     37.11
   S-2             4.350e-30   7.231e-31   -29.362   -30.141    -0.779     (0)  
S(6)          2.926e-02
   SO4-2           1.267e-02   1.980e-03    -1.897    -2.703    -0.806     19.92
   NaSO4-          6.800e-03   4.429e-03    -2.167    -2.354    -0.186     17.55
   MgSO4           6.264e-03   7.306e-03    -2.203    -2.136     0.067      7.19
   CaSO4           3.236e-03   3.774e-03    -2.490    -2.423     0.067      8.84
   KSO4-           2.897e-04   1.887e-04    -3.538    -3.724    -0.186     34.91
   HSO4-           4.203e-07   3.034e-07    -6.376    -6.518    -0.142     42.12
   CaHSO4+         4.251e-08   3.069e-08    -7.371    -7.513    -0.142     (0)  

------------------------------Saturation indices-------------------------------

  Phase               SI** log IAP   log K(353 K, 100 atm)

  Anhydrite         0.10     -4.82   -4.91  CaSO4
  Aragonite        -0.11     -8.90   -8.80  CaCO3
  Calcite           0.00     -8.90   -8.90  CaCO3
  CH4(g)          -25.14    -28.21   -3.07  CH4
  CO2(g)           -1.22     -3.17   -1.95  CO2
  Dolomite          0.00    -18.00  -18.00  CaMg(CO3)2
  Gypsum           -0.14     -4.83   -4.69  CaSO4:2H2O
  H2(g)           -10.88    -14.05   -3.17  H2
  H2O(g)           -0.31     -0.01    0.31  H2O
  H2S(g)          -23.44    -31.40   -7.96  H2S
  Halite           -2.57     -0.95    1.62  NaCl
  O2(g)           -46.23    -49.38   -3.15  O2
  Sulfur          -17.96    -14.22    3.74  S
  Sylvite          -3.83     -2.68    1.14  KCl

**For a gas, SI = log10(fugacity). Fugacity = pressure * phi / 1 atm.
  For ideal gases, phi = 1.

Reaction step 13.

Using solution 1.	Seawater water
Using pure phase assemblage 1.	
Using temperature 1.	

-------------------------------Phase assemblage--------------------------------

                                                      Moles in assemblage
Phase               SI  log IAP  log K(T, P)   Initial       Final       Delta

Calcite           0.00    -8.97     -8.97    1.000e+01   9.946e+00  -5.382e-02
Dolomite          0.00   -18.08    -18.08    1.000e+01   1.003e+01   2.710e-02

-----------------------------Solution composition------------------------------

	Elements           Molality       Moles

	C                 2.225e-03   2.225e-03
	Ca                3.738e-02   3.738e-02
	Cl                5.657e-01   5.657e-01
	K                 1.058e-02   1.058e-02
	Mg                2.797e-02   2.797e-02
	Na                4.854e-01   4.854e-01
	S                 2.926e-02   2.926e-02

----------------------------Description of solution----------------------------

                                       pH  =   6.365      Charge balance
                                       pe  =  -1.046      Adjusted to redox equilibrium
      Specific Conductance (µS/cm,  85°C)  = 122372
                          Density (g/cm³)  =   0.99858
                               Volume (L)  =   1.03823
                        Activity of water  =   0.981
                 Ionic strength (mol/kgw)  =   6.666e-01
                       Mass of water (kg)  =   1.000e+00
                 Total alkalinity (eq/kg)  =   1.653e-03
                       Total CO2 (mol/kg)  =   2.225e-03
                         Temperature (°C)  =  85.00
                           Pressure (atm)  = 100.00
                  Electrical balance (eq)  =   7.966e-04
 Percent error, 100*(Cat-|An|)/(Cat+|An|)  =   0.07
                               Iterations  =  17
                                  Total H  = 1.110148e+02
                                  Total O  = 5.562971e+01

----------------------------Distribution of species----------------------------

                                               Log       Log       Log    mole V
   Species          Molality    Activity  Molality  Activity     Gamma   cm³/mol

   OH-             1.357e-06   7.839e-07    -5.868    -6.106    -0.238     -3.29
   H+              5.874e-07   4.311e-07    -6.231    -6.365    -0.134      0.00
   H2O             5.551e+01   9.806e-01     1.744    -0.009     0.000     18.51
C(-4)         1.896e-29
   CH4             1.896e-29   2.210e-29   -28.722   -28.656     0.067     39.77
C(4)          2.225e-03
   HCO3-           1.194e-03   7.747e-04    -2.923    -3.111    -0.188     27.89
   CO2             6.044e-04   7.047e-04    -3.219    -3.152     0.067     37.52
   CaHCO3+         1.639e-04   1.092e-04    -3.785    -3.962    -0.176     11.22
   MgHCO3+         1.350e-04   8.086e-05    -3.870    -4.092    -0.223      6.58
   NaHCO3          1.009e-04   1.177e-04    -3.996    -3.929     0.067      1.80
   NaCO3-          1.524e-05   1.096e-05    -4.817    -4.960    -0.143      4.81
   CaCO3           8.796e-06   1.026e-05    -5.056    -4.989     0.067    -13.86
   MgCO3           1.523e-06   1.775e-06    -5.817    -5.751     0.067    -16.42
   CO3-2           8.437e-07   1.494e-07    -6.074    -6.826    -0.752     -5.36
   (CO2)2          3.204e-08   3.735e-08    -7.494    -7.428     0.067     75.05
Ca            3.738e-02
   Ca+2            3.422e-02   7.202e-03    -1.466    -2.143    -0.677    -16.10
   CaSO4           2.988e-03   3.483e-03    -2.525    -2.458     0.067      8.90
   CaHCO3+         1.639e-04   1.092e-04    -3.785    -3.962    -0.176     11.22
   CaCO3           8.796e-06   1.026e-05    -5.056    -4.989     0.067    -13.86
   CaHSO4+         4.603e-08   3.309e-08    -7.337    -7.480    -0.143     (0)  
   CaOH+           3.812e-09   2.741e-09    -8.419    -8.562    -0.143     (0)  
Cl            5.657e-01
   Cl-             5.657e-01   3.389e-01    -0.247    -0.470    -0.223     18.36
H(0)          1.543e-14
   H2              7.716e-15   8.996e-15   -14.113   -14.046     0.067     28.53
K             1.058e-02
   K+              1.028e-02   6.080e-03    -1.988    -2.216    -0.228     10.97
   KSO4-           2.955e-04   1.917e-04    -3.529    -3.717    -0.188     34.84
Mg            2.797e-02
   Mg+2            2.093e-02   5.133e-03    -1.679    -2.290    -0.610    -21.49
   MgSO4           6.899e-03   8.044e-03    -2.161    -2.095     0.067      7.24
   MgHCO3+         1.350e-04   8.086e-05    -3.870    -4.092    -0.223      6.58
   MgOH+           5.614e-06   3.817e-06    -5.251    -5.418    -0.168     (0)  
   MgCO3           1.523e-06   1.775e-06    -5.817    -5.751     0.067    -16.42
Na            4.854e-01
   Na+             4.786e-01   3.269e-01    -0.320    -0.486    -0.166      1.23
   NaSO4-          6.687e-03   4.338e-03    -2.175    -2.363    -0.188     17.01
   NaHCO3          1.009e-04   1.177e-04    -3.996    -3.929     0.067      1.80
   NaCO3-          1.524e-05   1.096e-05    -4.817    -4.960    -0.143      4.81
   NaOH            2.183e-17   2.545e-17   -16.661   -16.594     0.067     (0)  
O(0)          0.000e+00
   O2              0.000e+00   0.000e+00   -48.330   -48.263     0.067     33.06
S(-2)         1.034e-25
   HS-             6.125e-26   3.539e-26   -25.213   -25.451    -0.238     21.84
   H2S             4.220e-26   4.920e-26   -25.375   -25.308     0.067     37.11
   S-2             1.999e-30   3.266e-31   -29.699   -30.486    -0.787     (0)  
S(6)          2.926e-02
   SO4-2           1.239e-02   1.903e-03    -1.907    -2.721    -0.814     19.80
   MgSO4           6.899e-03   8.044e-03    -2.161    -2.095     0.067      7.24
   NaSO4-          6.687e-03   4.338e-03    -2.175    -2.363    -0.188     17.01
   CaSO4           2.988e-03   3.483e-03    -2.525    -2.458     0.067      8.90
   KSO4-           2.955e-04   1.917e-04    -3.529    -3.717    -0.188     34.84
   HSO4-           4.871e-07   3.502e-07    -6.312    -6.456    -0.143     42.10
   CaHSO4+         4.603e-08   3.309e-08    -7.337    -7.480    -0.143     (0)  

------------------------------Saturation indices-------------------------------

  Phase               SI** log IAP   log K(358 K, 100 atm)

  Anhydrite         0.12     -4.86   -4.99  CaSO4
  Aragonite        -0.10     -8.97   -8.86  CaCO3
  Calcite           0.00     -8.97   -8.97  CaCO3
  CH4(g)          -25.58    -28.66   -3.07  CH4
  CO2(g)           -1.18     -3.15   -1.98  CO2
  Dolomite          0.00    -18.08  -18.08  CaMg(CO3)2
  Gypsum           -0.16     -4.88   -4.72  CaSO4:2H2O
  H2(g)           -10.88    -14.05   -3.16  H2
  H2O(g)           -0.23     -0.01    0.22  H2O
  H2S(g)          -23.85    -31.82   -7.97  H2S
  Halite           -2.58     -0.96    1.62  NaCl
  O2(g)           -45.10    -48.26   -3.16  O2
  Sulfur          -18.33    -14.67    3.66  S
  Sylvite          -3.85     -2.69    1.16  KCl

**For a gas, SI = log10(fugacity). Fugacity = pressure * phi / 1 atm.
  For ideal gases, phi = 1.

Reaction step 14.

Using solution 1.	Seawater water
Using pure phase assemblage 1.	
Using temperature 1.	

-------------------------------Phase assemblage--------------------------------

                                                      Moles in assemblage
Phase               SI  log IAP  log K(T, P)   Initial       Final       Delta

Calcite           0.00    -9.04     -9.04    1.000e+01   9.951e+00  -4.929e-02
Dolomite          0.00   -18.16    -18.16    1.000e+01   1.002e+01   2.485e-02

-----------------------------Solution composition------------------------------

	Elements           Molality       Moles

	C                 2.205e-03   2.205e-03
	Ca                3.511e-02   3.511e-02
	Cl                5.657e-01   5.657e-01
	K                 1.058e-02   1.058e-02
	Mg                3.022e-02   3.022e-02
	Na                4.854e-01   4.854e-01
	S                 2.926e-02   2.926e-02

----------------------------Description of solution----------------------------

                                       pH  =   6.354      Charge balance
                                       pe  =  -1.040      Adjusted to redox equilibrium
      Specific Conductance (µS/cm,  90°C)  = 128151
                          Density (g/cm³)  =   0.99535
                               Volume (L)  =   1.04156
                        Activity of water  =   0.981
                 Ionic strength (mol/kgw)  =   6.651e-01
                       Mass of water (kg)  =   1.000e+00
                 Total alkalinity (eq/kg)  =   1.613e-03
                       Total CO2 (mol/kg)  =   2.205e-03
                         Temperature (°C)  =  90.00
                           Pressure (atm)  = 100.00
                  Electrical balance (eq)  =   7.966e-04
 Percent error, 100*(Cat-|An|)/(Cat+|An|)  =   0.07
                               Iterations  =  16
                                  Total H  = 1.110148e+02
                                  Total O  = 5.562965e+01

----------------------------Distribution of species----------------------------

                                               Log       Log       Log    mole V
   Species          Molality    Activity  Molality  Activity     Gamma   cm³/mol

   OH-             1.632e-06   9.380e-07    -5.787    -6.028    -0.241     -3.53
   H+              6.053e-07   4.429e-07    -6.218    -6.354    -0.136      0.00
   H2O             5.551e+01   9.806e-01     1.744    -0.009     0.000     18.58
C(-4)         6.282e-30
   CH4             6.282e-30   7.322e-30   -29.202   -29.135     0.067     40.15
C(4)          2.205e-03
   HCO3-           1.155e-03   7.461e-04    -2.937    -3.127    -0.190     27.77
   CO2             6.278e-04   7.317e-04    -3.202    -3.136     0.067     37.87
   CaHCO3+         1.527e-04   1.014e-04    -3.816    -3.994    -0.178     11.24
   MgHCO3+         1.470e-04   8.759e-05    -3.833    -4.058    -0.225      6.55
   NaHCO3          9.476e-05   1.104e-04    -4.023    -3.957     0.067      1.80
   NaCO3-          1.672e-05   1.197e-05    -4.777    -4.922    -0.145      4.54
   CaCO3           8.672e-06   1.011e-05    -5.062    -4.995     0.067    -13.85
   MgCO3           1.599e-06   1.864e-06    -5.796    -5.730     0.067    -16.42
   CO3-2           7.942e-07   1.382e-07    -6.100    -6.859    -0.759     -6.28
   (CO2)2          3.725e-08   4.342e-08    -7.429    -7.362     0.067     75.73
Ca            3.511e-02
   Ca+2            3.223e-02   6.659e-03    -1.492    -2.177    -0.685    -16.19
   CaSO4           2.714e-03   3.164e-03    -2.566    -2.500     0.067      8.94
   CaHCO3+         1.527e-04   1.014e-04    -3.816    -3.994    -0.178     11.24
   CaCO3           8.672e-06   1.011e-05    -5.062    -4.995     0.067    -13.85
   CaHSO4+         4.864e-08   3.482e-08    -7.313    -7.458    -0.145     (0)  
   CaOH+           3.444e-09   2.466e-09    -8.463    -8.608    -0.145     (0)  
Cl            5.657e-01
   Cl-             5.657e-01   3.370e-01    -0.247    -0.472    -0.225     18.17
H(0)          1.532e-14
   H2              7.658e-15   8.926e-15   -14.116   -14.049     0.067     28.52
K             1.058e-02
   K+              1.028e-02   6.043e-03    -1.988    -2.219    -0.231     11.02
   KSO4-           3.001e-04   1.938e-04    -3.523    -3.713    -0.190     34.75
Mg            3.022e-02
   Mg+2            2.246e-02   5.412e-03    -1.649    -2.267    -0.618    -21.67
   MgSO4           7.607e-03   8.866e-03    -2.119    -2.052     0.067      7.29
   MgHCO3+         1.470e-04   8.759e-05    -3.833    -4.058    -0.225      6.55
   MgOH+           7.871e-06   5.332e-06    -5.104    -5.273    -0.169     (0)  
   MgCO3           1.599e-06   1.864e-06    -5.796    -5.730     0.067    -16.42
Na            4.854e-01
   Na+             4.787e-01   3.252e-01    -0.320    -0.488    -0.168      1.30
   NaSO4-          6.552e-03   4.232e-03    -2.184    -2.373    -0.190     16.41
   NaHCO3          9.476e-05   1.104e-04    -4.023    -3.957     0.067      1.80
   NaCO3-          1.672e-05   1.197e-05    -4.777    -4.922    -0.145      4.54
   NaOH            2.598e-17   3.028e-17   -16.585   -16.519     0.067     (0)  
O(0)          0.000e+00
   O2              0.000e+00   0.000e+00   -47.219   -47.153     0.067     33.24
S(-2)         3.553e-26
   HS-             2.098e-26   1.206e-26   -25.678   -25.919    -0.241     21.72
   H2S             1.455e-26   1.696e-26   -25.837   -25.771     0.067     37.12
   S-2             8.518e-31   1.367e-31   -30.070   -30.864    -0.795     (0)  
S(6)          2.926e-02
   SO4-2           1.208e-02   1.824e-03    -1.918    -2.739    -0.821     19.61
   MgSO4           7.607e-03   8.866e-03    -2.119    -2.052     0.067      7.29
   NaSO4-          6.552e-03   4.232e-03    -2.184    -2.373    -0.190     16.41
   CaSO4           2.714e-03   3.164e-03    -2.566    -2.500     0.067      8.94
   KSO4-           3.001e-04   1.938e-04    -3.523    -3.713    -0.190     34.75
   HSO4-           5.576e-07   3.992e-07    -6.254    -6.399    -0.145     42.05
   CaHSO4+         4.864e-08   3.482e-08    -7.313    -7.458    -0.145     (0)  

------------------------------Saturation indices-------------------------------

  Phase               SI** log IAP   log K(363 K, 100 atm)

  Anhydrite         0.14     -4.92   -5.06  CaSO4
  Aragonite        -0.10     -9.04   -8.93  CaCO3
  Calcite           0.00     -9.04   -9.04  CaCO3
  CH4(g)          -26.06    -29.14   -3.07  CH4
  CO2(g)           -1.14     -3.14   -2.00  CO2
  Dolomite          0.00    -18.16  -18.16  CaMg(CO3)2
  Gypsum           -0.19     -4.93   -4.74  CaSO4:2H2O
  H2(g)           -10.89    -14.05   -3.16  H2
  H2O(g)           -0.15     -0.01    0.14  H2O
  H2S(g)          -24.31    -32.27   -7.97  H2S
  Halite           -2.58     -0.96    1.62  NaCl
  O2(g)           -43.99    -47.15   -3.16  O2
  Sulfur          -18.73    -15.14    3.58  S
  Sylvite          -3.87     -2.69    1.18  KCl

**For a gas, SI = log10(fugacity). Fugacity = pressure * phi / 1 atm.
  For ideal gases, phi = 1.

------------------
End of simulation.
------------------

------------------------------------
Reading input data for simulation 3.
------------------------------------

----------------------------------
End of Run after 0.060841 Seconds.
----------------------------------

