   Input file: ../examples/ex-exchange-co2-solubility-nacl-h2o-react
  Output file: ../examples/ex-exchange-co2-solubility-nacl-h2o-react.out
Database file: ../database/phreeqc.dat

------------------
Reading data base.
------------------

	SOLUTION_MASTER_SPECIES
	SOLUTION_SPECIES
	PHASES
	EXCHANGE_MASTER_SPECIES
	EXCHANGE_SPECIES
	SURFACE_MASTER_SPECIES
	SURFACE_SPECIES
	RATES
	END
------------------------------------
Reading input data for simulation 1.
------------------------------------

	DATABASE ../database/phreeqc.dat
	TITLE Comparison of PHREEQC and Reaktoro speciation calculations
	KNOBS
	        convergence_tolerance 1e-15
	SOLUTION 1 NaCl = 1.0, P = 1.0
	        units   mol/kgw
	        temp    25.0
	        pressure 1.0
	        Na      1.0
	        Cl      1.0
	EQUILIBRIUM_PHASES
	        CO2(g)  0.0 10.0
	EXCHANGE 1
	        X       1.0
	REACTION_TEMPERATURE 1
	        25.0 90.0 in 14 steps
	SELECTED_OUTPUT
	        file   ../out/phreeqc-nacl-1-p-1.txt
	        temperature
	        totals C
	        equilibrium_phases CO2(g)
	        molalities NaX
	END
-----
TITLE
-----

 Comparison of PHREEQC and Reaktoro speciation calculations

-------------------------------------------
Beginning of initial solution calculations.
-------------------------------------------

Initial solution 1.	NaCl = 1.0, P = 1.0

-----------------------------Solution composition------------------------------

	Elements           Molality       Moles

	Cl                1.000e+00   1.000e+00
	Na                1.000e+00   1.000e+00

----------------------------Description of solution----------------------------

                                       pH  =   7.000    
                                       pe  =   4.000    
      Specific Conductance (µS/cm,  25°C)  = 82851
                          Density (g/cm³)  =   1.03606
                               Volume (L)  =   1.02160
                        Activity of water  =   0.966
                 Ionic strength (mol/kgw)  =   1.000e+00
                       Mass of water (kg)  =   1.000e+00
                 Total alkalinity (eq/kg)  =   3.428e-08
                         Temperature (°C)  =  25.00
                  Electrical balance (eq)  =  -3.428e-08
 Percent error, 100*(Cat-|An|)/(Cat+|An|)  =  -0.00
                               Iterations  =   5
                                  Total H  = 1.110124e+02
                                  Total O  = 5.550622e+01

----------------------------Distribution of species----------------------------

                                               Log       Log       Log    mole V
   Species          Molality    Activity  Molality  Activity     Gamma   cm³/mol

   OH-             1.688e-07   9.777e-08    -6.773    -7.010    -0.237     -2.10
   H+              1.346e-07   1.000e-07    -6.871    -7.000    -0.129      0.00
   H2O             5.551e+01   9.660e-01     1.744    -0.015     0.000     18.07
Cl            1.000e+00
   Cl-             1.000e+00   6.087e-01     0.000    -0.216    -0.216     18.94
H(0)          1.125e-25
   H2              5.623e-26   7.079e-26   -25.250   -25.150     0.100     28.61
Na            1.000e+00
   Na+             1.000e+00   7.312e-01     0.000    -0.136    -0.136     -0.31
   NaOH            5.679e-18   7.150e-18   -17.246   -17.146     0.100     (0)  
O(0)          0.000e+00
   O2              0.000e+00   0.000e+00   -42.210   -42.110     0.100     30.40

------------------------------Saturation indices-------------------------------

  Phase               SI** log IAP   log K(298 K,   1 atm)

  H2(g)           -22.05    -25.15   -3.10  H2
  H2O(g)           -1.52     -0.02    1.50  H2O
  Halite           -1.92     -0.35    1.57  NaCl
  O2(g)           -39.22    -42.11   -2.89  O2

**For a gas, SI = log10(fugacity). Fugacity = pressure * phi / 1 atm.
  For ideal gases, phi = 1.

-----------------------------------------
Beginning of batch-reaction calculations.
-----------------------------------------

Reaction step 1.

Using solution 1.	NaCl = 1.0, P = 1.0
Using exchange 1.	
Using pure phase assemblage 1.	
Using temperature 1.	

-------------------------------Phase assemblage--------------------------------

                                                      Moles in assemblage
Phase               SI  log IAP  log K(T, P)   Initial       Final       Delta

CO2(g)           -0.00    -1.47     -1.47    1.000e+01   9.973e+00  -2.662e-02

-----------------------------Exchange composition------------------------------

X                1.000e+00 mol

	                               Equiv-    Equivalent      Log 
	Species             Moles      alents      Fraction     Gamma

	NaX               1.000e+00   1.000e+00   1.000e+00    -0.136

-----------------------------Solution composition------------------------------

	Elements           Molality       Moles

	C                 2.686e-02   2.662e-02
	Cl                1.009e+00   1.000e+00
	Na                9.745e-16   9.657e-16

----------------------------Description of solution----------------------------

                                       pH  =   0.125      Charge balance
                                       pe  =  21.279      Adjusted to redox equilibrium
      Specific Conductance (µS/cm,  25°C)  = 331170
                          Density (g/cm³)  =   1.01491
                               Volume (L)  =   1.02140
                        Activity of water  =   0.961
                 Ionic strength (mol/kgw)  =   1.009e+00
                       Mass of water (kg)  =   9.910e-01
                 Total alkalinity (eq/kg)  =  -1.009e+00
                       Total CO2 (mol/kg)  =   2.686e-02
                         Temperature (°C)  =  25.00
                  Electrical balance (eq)  =  -3.428e-08
 Percent error, 100*(Cat-|An|)/(Cat+|An|)  =  -0.00
                               Iterations  =  43
                                  Total H  = 1.110124e+02
                                  Total O  = 5.555945e+01

----------------------------Distribution of species----------------------------

                                               Log       Log       Log    mole V
   Species          Molality    Activity  Molality  Activity     Gamma   cm³/mol

   H+              1.009e+00   7.497e-01     0.004    -0.125    -0.129      0.00
   OH-             2.243e-14   1.297e-14   -13.649   -13.887    -0.238     -2.09
   H2O             5.551e+01   9.609e-01     1.744    -0.017     0.000     18.07
C(-4)         0.000e+00
   CH4             0.000e+00   0.000e+00  -148.381  -148.280     0.101     35.46
C(4)          2.686e-02
   CO2             2.682e-02   3.384e-02    -1.571    -1.471     0.101     34.43
   (CO2)2          1.666e-05   2.102e-05    -4.778    -4.677     0.101     68.87
   HCO3-           2.948e-08   1.929e-08    -7.530    -7.715    -0.184     27.92
   CO3-2           6.582e-18   1.207e-18   -17.182   -17.918    -0.737     -1.12
   NaHCO3          6.132e-24   7.737e-24   -23.212   -23.111     0.101      1.80
   NaCO3-          2.023e-32   1.603e-32   -31.694   -31.795    -0.101      4.63
Cl            1.009e+00
   Cl-             1.009e+00   6.137e-01     0.004    -0.212    -0.216     18.95
H(0)          0.000e+00
   H2              0.000e+00   0.000e+00   -46.060   -45.959     0.101     28.61
Na            9.745e-16
   Na+             9.745e-16   7.131e-16   -15.011   -15.147    -0.136     -0.30
   NaHCO3          6.132e-24   7.737e-24   -23.212   -23.111     0.101      1.80
   NaCO3-          2.023e-32   1.603e-32   -31.694   -31.795    -0.101      4.63
   NaOH            7.334e-40   9.252e-40   -39.135   -39.034     0.101     (0)  
O(0)          5.045e-01
   O2              2.523e-01   3.183e-01    -0.598    -0.497     0.101     30.40

------------------------------Saturation indices-------------------------------

  Phase               SI** log IAP   log K(298 K,   1 atm)

  CH4(g)         -145.48   -148.28   -2.80  CH4
  CO2(g)           -0.00     -1.47   -1.47  CO2	 Pressure   1.0 atm, phi 0.994
  H2(g)           -42.86    -45.96   -3.10  H2
  H2O(g)           -1.52     -0.02    1.50  H2O
  Halite          -16.93    -15.36    1.57  NaCl
  O2(g)             2.40     -0.50   -2.89  O2

**For a gas, SI = log10(fugacity). Fugacity = pressure * phi / 1 atm.
  For ideal gases, phi = 1.

Reaction step 2.

WARNING: Maximum iterations exceeded, 100

WARNING: Numerical method failed with this set of convergence parameters.

WARNING: Trying smaller step size, pe step size 10, 5 ... 

WARNING: Maximum iterations exceeded, 200

WARNING: Numerical method failed with this set of convergence parameters.

WARNING: Trying reduced tolerance 1e-16 ...

Using solution 1.	NaCl = 1.0, P = 1.0
Using exchange 1.	
Using pure phase assemblage 1.	
Using temperature 1.	

-------------------------------Phase assemblage--------------------------------

                                                      Moles in assemblage
Phase               SI  log IAP  log K(T, P)   Initial       Final       Delta

CO2(g)           -0.00    -1.53     -1.52    1.000e+01   9.977e+00  -2.338e-02

-----------------------------Exchange composition------------------------------

X                1.000e+00 mol

	                               Equiv-    Equivalent      Log 
	Species             Moles      alents      Fraction     Gamma

	NaX               1.000e+00   1.000e+00   1.000e+00    -0.137

-----------------------------Solution composition------------------------------

	Elements           Molality       Moles

	C                 2.359e-02   2.338e-02
	Cl                1.009e+00   1.000e+00
	Na                6.838e-16   6.776e-16

----------------------------Description of solution----------------------------

                                       pH  =   0.126      Charge balance
                                       pe  =  20.871      Adjusted to redox equilibrium
      Specific Conductance (µS/cm,  30°C)  = 351572
                          Density (g/cm³)  =   1.01326
                               Volume (L)  =   1.02292
                        Activity of water  =   0.961
                 Ionic strength (mol/kgw)  =   1.009e+00
                       Mass of water (kg)  =   9.910e-01
                 Total alkalinity (eq/kg)  =  -1.009e+00
                       Total CO2 (mol/kg)  =   2.359e-02
                         Temperature (°C)  =  30.00
                  Electrical balance (eq)  =  -3.428e-08
 Percent error, 100*(Cat-|An|)/(Cat+|An|)  =  -0.00
                               Iterations  =  43 (345 overall)
                                  Total H  = 1.110124e+02
                                  Total O  = 5.555297e+01

----------------------------Distribution of species----------------------------

                                               Log       Log       Log    mole V
   Species          Molality    Activity  Molality  Activity     Gamma   cm³/mol

   H+              1.009e+00   7.481e-01     0.004    -0.126    -0.130      0.00
   OH-             3.274e-14   1.886e-14   -13.485   -13.725    -0.240     -1.89
   H2O             5.551e+01   9.610e-01     1.744    -0.017     0.000     18.09
C(-4)         0.000e+00
   CH4             0.000e+00   0.000e+00  -145.852  -145.751     0.101     35.87
C(4)          2.359e-02
   CO2             2.356e-02   2.972e-02    -1.628    -1.527     0.101     34.68
   (CO2)2          1.509e-05   1.904e-05    -4.821    -4.720     0.101     69.35
   HCO3-           2.749e-08   1.793e-08    -7.561    -7.746    -0.185     28.17
   CO3-2           6.821e-18   1.235e-18   -17.166   -17.908    -0.742     -0.94
   NaHCO3          3.876e-24   4.890e-24   -23.412   -23.311     0.101      1.80
   NaCO3-          1.859e-32   1.470e-32   -31.731   -31.833    -0.102      5.18
Cl            1.009e+00
   Cl-             1.009e+00   6.113e-01     0.004    -0.214    -0.218     19.09
H(0)          0.000e+00
   H2              0.000e+00   0.000e+00   -45.266   -45.165     0.101     28.60
Na            6.838e-16
   Na+             6.838e-16   4.985e-16   -15.165   -15.302    -0.137     -0.11
   NaHCO3          3.876e-24   4.890e-24   -23.412   -23.311     0.101      1.80
   NaCO3-          1.859e-32   1.470e-32   -31.731   -31.833    -0.102      5.18
   NaOH            7.452e-40   9.401e-40   -39.128   -39.027     0.101     (0)  
O(0)          5.045e-01
   O2              2.523e-01   3.183e-01    -0.598    -0.497     0.101     30.77

------------------------------Saturation indices-------------------------------

  Phase               SI** log IAP   log K(303 K,   1 atm)

  CH4(g)         -142.91   -145.75   -2.84  CH4
  CO2(g)           -0.00     -1.53   -1.52  CO2	 Pressure   1.0 atm, phi 0.995
  H2(g)           -42.05    -45.17   -3.11  H2
  H2O(g)           -1.39     -0.02    1.38  H2O
  Halite          -17.09    -15.52    1.57  NaCl
  O2(g)             2.43     -0.50   -2.93  O2

**For a gas, SI = log10(fugacity). Fugacity = pressure * phi / 1 atm.
  For ideal gases, phi = 1.

Reaction step 3.

WARNING: Maximum iterations exceeded, 100

WARNING: Numerical method failed with this set of convergence parameters.

WARNING: Trying smaller step size, pe step size 10, 5 ... 

WARNING: Maximum iterations exceeded, 200

WARNING: Numerical method failed with this set of convergence parameters.

WARNING: Trying reduced tolerance 1e-16 ...

WARNING: Maximum iterations exceeded, 200

WARNING: Numerical method failed with this set of convergence parameters.

WARNING: Trying increased tolerance 1e-14 ...

WARNING: Maximum iterations exceeded, 200

WARNING: Numerical method failed with this set of convergence parameters.

WARNING: Trying diagonal scaling ...

WARNING: Maximum iterations exceeded, 200

WARNING: Numerical method failed with this set of convergence parameters.

WARNING: Trying diagonal scaling and reduced tolerance 1e-16 ...

WARNING: Maximum iterations exceeded, 200

WARNING: Numerical method failed with this set of convergence parameters.

WARNING: Trying scaling pure_phase columns 1e-10 ...

WARNING: Maximum iterations exceeded, 200

WARNING: Numerical method failed with this set of convergence parameters.

WARNING: Trying scaling pure_phase columns and diagonal scale 1e-10 ...

WARNING: Maximum iterations exceeded, 200

WARNING: Numerical method failed with this set of convergence parameters.

WARNING: Trying delay removal of equilibrium phases 1 ...

WARNING: Maximum iterations exceeded, 100

WARNING: Numerical method failed with this set of convergence parameters.

WARNING: Trying increased scaling 1e-09 ...

WARNING: Maximum iterations exceeded, 200

WARNING: Numerical method failed with this set of convergence parameters.

WARNING: Skipping optimize equations for first 5 iterations ...

Using solution 1.	NaCl = 1.0, P = 1.0
Using exchange 1.	
Using pure phase assemblage 1.	
Using temperature 1.	

-------------------------------Phase assemblage--------------------------------

                                                      Moles in assemblage
Phase               SI  log IAP  log K(T, P)   Initial       Final       Delta

CO2(g)           -0.00    -1.58     -1.58    1.000e+01   9.979e+00  -2.074e-02

-----------------------------Exchange composition------------------------------

X                1.000e+00 mol

	                               Equiv-    Equivalent      Log 
	Species             Moles      alents      Fraction     Gamma

	NaX               1.000e+00   1.000e+00   1.000e+00    -0.139

-----------------------------Solution composition------------------------------

	Elements           Molality       Moles

	C                 2.093e-02   2.074e-02
	Cl                1.009e+00   1.000e+00
	Na                4.721e-16   4.679e-16

----------------------------Description of solution----------------------------

                                       pH  =   0.127      Charge balance
                                       pe  =  20.476      Adjusted to redox equilibrium
      Specific Conductance (µS/cm,  35°C)  = 371253
                          Density (g/cm³)  =   1.01145
                               Volume (L)  =   1.02463
                        Activity of water  =   0.961
                 Ionic strength (mol/kgw)  =   1.009e+00
                       Mass of water (kg)  =   9.910e-01
                 Total alkalinity (eq/kg)  =  -1.009e+00
                       Total CO2 (mol/kg)  =   2.093e-02
                         Temperature (°C)  =  35.00
                  Electrical balance (eq)  =  -3.428e-08
 Percent error, 100*(Cat-|An|)/(Cat+|An|)  =  -0.00
                               Iterations  =  45 (1855 overall)
                                  Total H  = 1.110124e+02
                                  Total O  = 5.554769e+01

----------------------------Distribution of species----------------------------

                                               Log       Log       Log    mole V
   Species          Molality    Activity  Molality  Activity     Gamma   cm³/mol

   H+              1.009e+00   7.465e-01     0.004    -0.127    -0.131      0.00
   OH-             4.693e-14   2.692e-14   -13.329   -13.570    -0.241     -1.74
   H2O             5.551e+01   9.610e-01     1.744    -0.017     0.000     18.12
C(-4)         0.000e+00
   CH4             0.000e+00   0.000e+00  -143.411  -143.310     0.101     36.25
C(4)          2.093e-02
   CO2             2.090e-02   2.636e-02    -1.680    -1.579     0.101     34.92
   (CO2)2          1.381e-05   1.742e-05    -4.860    -4.759     0.101     69.83
   HCO3-           2.555e-08   1.662e-08    -7.593    -7.779    -0.187     28.36
   CO3-2           6.963e-18   1.245e-18   -17.157   -17.905    -0.748     -0.89
   NaHCO3          2.404e-24   3.033e-24   -23.619   -23.518     0.101      1.80
   NaCO3-          1.642e-32   1.295e-32   -31.785   -31.888    -0.103      5.63
Cl            1.009e+00
   Cl-             1.009e+00   6.087e-01     0.004    -0.216    -0.220     19.18
H(0)          0.000e+00
   H2              0.000e+00   0.000e+00   -44.498   -44.397     0.101     28.60
Na            4.721e-16
   Na+             4.721e-16   3.429e-16   -15.326   -15.465    -0.139      0.07
   NaHCO3          2.404e-24   3.033e-24   -23.619   -23.518     0.101      1.80
   NaCO3-          1.642e-32   1.295e-32   -31.785   -31.888    -0.103      5.63
   NaOH            7.317e-40   9.230e-40   -39.136   -39.035     0.101     (0)  
O(0)          5.045e-01
   O2              2.523e-01   3.183e-01    -0.598    -0.497     0.101     31.10

------------------------------Saturation indices-------------------------------

  Phase               SI** log IAP   log K(308 K,   1 atm)

  CH4(g)         -140.43   -143.31   -2.88  CH4
  CO2(g)           -0.00     -1.58   -1.58  CO2	 Pressure   1.0 atm, phi 0.995
  H2(g)           -41.28    -44.40   -3.12  H2
  H2O(g)           -1.27     -0.02    1.26  H2O
  Halite          -17.26    -15.68    1.58  NaCl
  O2(g)             2.46     -0.50   -2.96  O2

**For a gas, SI = log10(fugacity). Fugacity = pressure * phi / 1 atm.
  For ideal gases, phi = 1.

Reaction step 4.

WARNING: Maximum iterations exceeded, 100

WARNING: Numerical method failed with this set of convergence parameters.

WARNING: Trying smaller step size, pe step size 10, 5 ... 

Using solution 1.	NaCl = 1.0, P = 1.0
Using exchange 1.	
Using pure phase assemblage 1.	
Using temperature 1.	

-------------------------------Phase assemblage--------------------------------

                                                      Moles in assemblage
Phase               SI  log IAP  log K(T, P)   Initial       Final       Delta

CO2(g)           -0.00    -1.63     -1.63    1.000e+01   9.981e+00  -1.856e-02

-----------------------------Exchange composition------------------------------

X                1.000e+00 mol

	                               Equiv-    Equivalent      Log 
	Species             Moles      alents      Fraction     Gamma

	NaX               1.000e+00   1.000e+00   1.000e+00    -0.141

-----------------------------Solution composition------------------------------

	Elements           Molality       Moles

	C                 1.873e-02   1.856e-02
	Cl                1.009e+00   1.000e+00
	Na                9.755e-16   9.667e-16

----------------------------Description of solution----------------------------

                                       pH  =   0.128      Charge balance
                                       pe  =  20.093      Adjusted to redox equilibrium
      Specific Conductance (µS/cm,  40°C)  = 390234
                          Density (g/cm³)  =   1.00950
                               Volume (L)  =   1.02652
                        Activity of water  =   0.961
                 Ionic strength (mol/kgw)  =   1.009e+00
                       Mass of water (kg)  =   9.910e-01
                 Total alkalinity (eq/kg)  =  -1.009e+00
                       Total CO2 (mol/kg)  =   1.873e-02
                         Temperature (°C)  =  40.00
                  Electrical balance (eq)  =  -3.428e-08
 Percent error, 100*(Cat-|An|)/(Cat+|An|)  =  -0.00
                               Iterations  =  51 (152 overall)
                                  Total H  = 1.110124e+02
                                  Total O  = 5.554334e+01

----------------------------Distribution of species----------------------------

                                               Log       Log       Log    mole V
   Species          Molality    Activity  Molality  Activity     Gamma   cm³/mol

   H+              1.009e+00   7.448e-01     0.004    -0.128    -0.132      0.00
   OH-             6.616e-14   3.778e-14   -13.179   -13.423    -0.243     -1.63
   H2O             5.551e+01   9.611e-01     1.744    -0.017     0.000     18.16
C(-4)         0.000e+00
   CH4             0.000e+00   0.000e+00  -141.054  -140.953     0.101     36.62
C(4)          1.873e-02
   CO2             1.871e-02   2.360e-02    -1.728    -1.627     0.101     35.16
   (CO2)2          1.276e-05   1.610e-05    -4.894    -4.793     0.101     70.32
   HCO3-           2.369e-08   1.535e-08    -7.625    -7.814    -0.188     28.51
   CO3-2           7.012e-18   1.237e-18   -17.154   -17.908    -0.753     -0.97
   NaHCO3          4.454e-24   5.619e-24   -23.351   -23.250     0.101      1.80
   NaCO3-          4.245e-32   3.341e-32   -31.372   -31.476    -0.104      5.99
Cl            1.009e+00
   Cl-             1.009e+00   6.060e-01     0.004    -0.217    -0.221     19.25
H(0)          0.000e+00
   H2              0.000e+00   0.000e+00   -43.755   -43.654     0.101     28.59
Na            9.755e-16
   Na+             9.755e-16   7.056e-16   -15.011   -15.151    -0.141      0.22
   NaHCO3          4.454e-24   5.619e-24   -23.351   -23.250     0.101      1.80
   NaCO3-          4.245e-32   3.341e-32   -31.372   -31.476    -0.104      5.99
   NaOH            2.113e-39   2.666e-39   -38.675   -38.574     0.101     (0)  
O(0)          5.045e-01
   O2              2.523e-01   3.183e-01    -0.598    -0.497     0.101     31.40

------------------------------Saturation indices-------------------------------

  Phase               SI** log IAP   log K(313 K,   1 atm)

  CH4(g)         -138.04   -140.95   -2.91  CH4
  CO2(g)           -0.00     -1.63   -1.63  CO2	 Pressure   1.0 atm, phi 0.995
  H2(g)           -40.53    -43.65   -3.13  H2
  H2O(g)           -1.16     -0.02    1.14  H2O
  Halite          -16.95    -15.37    1.58  NaCl
  O2(g)             2.49     -0.50   -2.98  O2

**For a gas, SI = log10(fugacity). Fugacity = pressure * phi / 1 atm.
  For ideal gases, phi = 1.

Reaction step 5.

WARNING: Maximum iterations exceeded, 100

WARNING: Numerical method failed with this set of convergence parameters.

WARNING: Trying smaller step size, pe step size 10, 5 ... 

WARNING: Maximum iterations exceeded, 200

WARNING: Numerical method failed with this set of convergence parameters.

WARNING: Trying reduced tolerance 1e-16 ...

WARNING: Maximum iterations exceeded, 200

WARNING: Numerical method failed with this set of convergence parameters.

WARNING: Trying increased tolerance 1e-14 ...

Using solution 1.	NaCl = 1.0, P = 1.0
Using exchange 1.	
Using pure phase assemblage 1.	
Using temperature 1.	

-------------------------------Phase assemblage--------------------------------

                                                      Moles in assemblage
Phase               SI  log IAP  log K(T, P)   Initial       Final       Delta

CO2(g)           -0.00    -1.67     -1.67    1.000e+01   9.983e+00  -1.676e-02

-----------------------------Exchange composition------------------------------

X                1.000e+00 mol

	                               Equiv-    Equivalent      Log 
	Species             Moles      alents      Fraction     Gamma

	NaX               1.000e+00   1.000e+00   1.000e+00    -0.143

-----------------------------Solution composition------------------------------

	Elements           Molality       Moles

	C                 1.691e-02   1.676e-02
	Cl                1.009e+00   1.000e+00
	Na                6.408e-15   6.351e-15

----------------------------Description of solution----------------------------

                                       pH  =   0.129      Charge balance
                                       pe  =  19.723      Adjusted to redox equilibrium
      Specific Conductance (µS/cm,  45°C)  = 408530
                          Density (g/cm³)  =   1.00740
                               Volume (L)  =   1.02858
                        Activity of water  =   0.961
                 Ionic strength (mol/kgw)  =   1.009e+00
                       Mass of water (kg)  =   9.910e-01
                 Total alkalinity (eq/kg)  =  -1.009e+00
                       Total CO2 (mol/kg)  =   1.691e-02
                         Temperature (°C)  =  45.00
                  Electrical balance (eq)  =  -3.428e-08
 Percent error, 100*(Cat-|An|)/(Cat+|An|)  =  -0.00
                               Iterations  =  43 (546 overall)
                                  Total H  = 1.110124e+02
                                  Total O  = 5.553973e+01

----------------------------Distribution of species----------------------------

                                               Log       Log       Log    mole V
   Species          Molality    Activity  Molality  Activity     Gamma   cm³/mol

   H+              1.009e+00   7.430e-01     0.004    -0.129    -0.133      0.00
   OH-             9.181e-14   5.218e-14   -13.037   -13.282    -0.245     -1.57
   H2O             5.551e+01   9.611e-01     1.744    -0.017     0.000     18.19
C(-4)         0.000e+00
   CH4             0.000e+00   0.000e+00  -138.778  -138.677     0.101     36.98
C(4)          1.691e-02
   CO2             1.688e-02   2.130e-02    -1.773    -1.672     0.101     35.41
   (CO2)2          1.190e-05   1.501e-05    -4.925    -4.824     0.101     70.81
   HCO3-           2.191e-08   1.415e-08    -7.659    -7.849    -0.190     28.63
   CO3-2           6.973e-18   1.213e-18   -17.157   -17.916    -0.760     -1.15
   NaHCO3          2.618e-23   3.303e-23   -22.582   -22.481     0.101      1.80
   NaCO3-          3.417e-31   2.683e-31   -30.466   -30.571    -0.105      6.27
Cl            1.009e+00
   Cl-             1.009e+00   6.033e-01     0.004    -0.219    -0.223     19.28
H(0)          0.000e+00
   H2              0.000e+00   0.000e+00   -43.035   -42.934     0.101     28.59
Na            6.408e-15
   Na+             6.408e-15   4.615e-15   -14.193   -14.336    -0.143      0.35
   NaHCO3          2.618e-23   3.303e-23   -22.582   -22.481     0.101      1.80
   NaCO3-          3.417e-31   2.683e-31   -30.466   -30.571    -0.105      6.27
   NaOH            1.909e-38   2.408e-38   -37.719   -37.618     0.101     (0)  
O(0)          5.045e-01
   O2              2.523e-01   3.183e-01    -0.598    -0.497     0.101     31.67

------------------------------Saturation indices-------------------------------

  Phase               SI** log IAP   log K(318 K,   1 atm)

  CH4(g)         -135.74   -138.68   -2.94  CH4
  CO2(g)           -0.00     -1.67   -1.67  CO2	 Pressure   1.0 atm, phi 0.995
  H2(g)           -39.80    -42.93   -3.13  H2
  H2O(g)           -1.04     -0.02    1.03  H2O
  Halite          -16.14    -14.56    1.59  NaCl
  O2(g)             2.51     -0.50   -3.01  O2

**For a gas, SI = log10(fugacity). Fugacity = pressure * phi / 1 atm.
  For ideal gases, phi = 1.

Reaction step 6.

WARNING: Maximum iterations exceeded, 100

WARNING: Numerical method failed with this set of convergence parameters.

WARNING: Trying smaller step size, pe step size 10, 5 ... 

WARNING: Maximum iterations exceeded, 200

WARNING: Numerical method failed with this set of convergence parameters.

WARNING: Trying reduced tolerance 1e-16 ...

WARNING: Maximum iterations exceeded, 200

WARNING: Numerical method failed with this set of convergence parameters.

WARNING: Trying increased tolerance 1e-14 ...

WARNING: Maximum iterations exceeded, 200

WARNING: Numerical method failed with this set of convergence parameters.

WARNING: Trying diagonal scaling ...

WARNING: Maximum iterations exceeded, 200

WARNING: Numerical method failed with this set of convergence parameters.

WARNING: Trying diagonal scaling and reduced tolerance 1e-16 ...

WARNING: Maximum iterations exceeded, 200

WARNING: Numerical method failed with this set of convergence parameters.

WARNING: Trying scaling pure_phase columns 1e-10 ...

WARNING: Maximum iterations exceeded, 200

WARNING: Numerical method failed with this set of convergence parameters.

WARNING: Trying scaling pure_phase columns and diagonal scale 1e-10 ...

WARNING: Maximum iterations exceeded, 200

WARNING: Numerical method failed with this set of convergence parameters.

WARNING: Trying delay removal of equilibrium phases 1 ...

WARNING: Maximum iterations exceeded, 100

WARNING: Numerical method failed with this set of convergence parameters.

WARNING: Trying increased scaling 1e-09 ...

WARNING: Maximum iterations exceeded, 200

WARNING: Numerical method failed with this set of convergence parameters.

WARNING: Skipping optimize equations for first 5 iterations ...

WARNING: Maximum iterations exceeded, 100

WARNING: Numerical method failed with this set of convergence parameters.

WARNING: Adding inequality to make concentrations greater than zero.

WARNING: Maximum iterations exceeded, 100

WARNING: Numerical method failed with this set of convergence parameters.

WARNING: Trying reduced tolerance 1e-17 ...

WARNING: Maximum iterations exceeded, 200

WARNING: Numerical method failed with this set of convergence parameters.

WARNING: Trying reduced tolerance 1e-18 ...

WARNING: Maximum iterations exceeded, 200

WARNING: Numerical method failed with this set of convergence parameters.

WARNING: The program has failed to converge to a numerical solution.

The following equations were not satisfied:
ERROR:                    C has not converged. Total: 1.000000e+01	Calculated: 1.062147e+00	Residual: 8.937853e+00

ERROR:                   Cl has not converged. Total: 1.000000e+00	Calculated: 9.999996e-01	Residual: 3.833746e-07

ERROR:                   Na has not converged. Total: 1.000000e+00	Calculated: 1.000000e+00	Residual: -3.529503e-07

ERROR:               A(H2O) Activity of water has not converged. 	Residual: -1.400402e-01

ERROR:                   pH Charge balance has not converged. 	Residual: -8.500134e-06

ERROR:             Hydrogen Mass of hydrogen has not converged. 	Residual: -3.575142e+01

ERROR:               Oxygen Mass of oxygen has not converged. 	Residual: 1.787571e+01

ERROR:                    X Exchanger mass balance has not converged. 	Residual: -3.529503e-07

ERROR:               CO2(g) Pure phase has not converged. 	Residual: -4.156512e+00

Using solution 1.	NaCl = 1.0, P = 1.0
Using exchange 1.	
Using pure phase assemblage 1.	
Using temperature 1.	

-------------------------------Phase assemblage--------------------------------

                                                      Moles in assemblage
Phase               SI  log IAP  log K(T, P)   Initial       Final       Delta

CO2(g)            1.80     0.09     -1.71    1.000e+01           0  -1.000e+01

-----------------------------Exchange composition------------------------------

X                1.000e+00 mol

	                               Equiv-    Equivalent      Log 
	Species             Moles      alents      Fraction     Gamma

	NaX               1.000e+00   1.000e+00   1.000e+00    -0.144

-----------------------------Solution composition------------------------------

	Elements           Molality       Moles

	C                 1.072e+00   1.062e+00
	Cl                1.009e+00   1.000e+00
	Na                2.529e-18   2.506e-18

----------------------------Description of solution----------------------------

                                       pH  =   0.130      Charge balance
                                       pe  =  19.403      Adjusted to redox equilibrium
      Specific Conductance (µS/cm,  50°C)  = 426161
                          Density (g/cm³)  =   1.01317
                               Volume (L)  =   1.06813
                        Activity of water  =   0.803
                 Ionic strength (mol/kgw)  =   1.009e+00
                       Mass of water (kg)  =   9.910e-01
                 Total alkalinity (eq/kg)  =  -1.009e+00
                       Total CO2 (mol/kg)  =   1.072e+00
                         Temperature (°C)  =  50.00
                  Electrical balance (eq)  =   8.466e-06
 Percent error, 100*(Cat-|An|)/(Cat+|An|)  =   0.00
                               Iterations  = 201 (2414 overall)
                                  Total H  = 1.110124e+02
                                  Total O  = 5.763050e+01

----------------------------Distribution of species----------------------------

                                               Log       Log       Log    mole V
   Species          Molality    Activity  Molality  Activity     Gamma   cm³/mol

   H+              1.009e+00   7.412e-01     0.004    -0.130    -0.134      0.00
   OH-             1.048e-13   5.927e-14   -12.980   -13.227    -0.248     -1.54
   H2O             5.551e+01   8.026e-01     1.744    -0.095     0.000     18.23
C(-4)         0.000e+00
   CH4             0.000e+00   0.000e+00  -134.929  -134.828     0.101     37.33
C(4)          1.072e+00
   CO2             9.807e-01   1.237e+00    -0.008     0.092     0.101     35.66
   (CO2)2          4.555e-02   5.747e-02    -1.342    -1.241     0.101     71.32
   HCO3-           1.078e-06   6.938e-07    -5.967    -6.159    -0.191     28.71
   CO3-2           3.654e-16   6.265e-17   -15.437   -16.203    -0.766     -1.44
   NaHCO3          4.922e-25   6.209e-25   -24.308   -24.207     0.101      1.80
   NaCO3-          8.644e-33   6.771e-33   -32.063   -32.169    -0.106      6.48
Cl            1.009e+00
   Cl-             1.009e+00   6.004e-01     0.004    -0.222    -0.225     19.28
H(0)          0.000e+00
   H2              0.000e+00   0.000e+00   -42.416   -42.315     0.101     28.59
Na            2.529e-18
   Na+             2.529e-18   1.813e-18   -17.597   -17.742    -0.144      0.47
   NaHCO3          4.922e-25   6.209e-25   -24.308   -24.207     0.101      1.80
   NaCO3-          8.644e-33   6.771e-33   -32.063   -32.169    -0.106      6.48
   NaOH            0.000e+00   0.000e+00   -41.070   -40.969     0.101     (0)  
O(0)          5.045e-01
   O2              2.523e-01   3.183e-01    -0.598    -0.497     0.101     31.92

------------------------------Saturation indices-------------------------------

  Phase               SI** log IAP   log K(323 K,   1 atm)

  CH4(g)         -131.87   -134.83   -2.96  CH4
  CO2(g)            1.80      0.09   -1.71  CO2
  H2(g)           -39.18    -42.31   -3.14  H2
  H2O(g)           -1.01     -0.10    0.92  H2O
  Halite          -19.55    -17.96    1.59  NaCl
  O2(g)             2.53     -0.50   -3.03  O2

**For a gas, SI = log10(fugacity). Fugacity = pressure * phi / 1 atm.
  For ideal gases, phi = 1.

ERROR: Numerical method failed on all combinations of convergence parameters, cell/soln/mix 1
Stopping.
