   Input file: P:\U7265 PHREEQC Workshop 2017\Project\Data\Workshop\Day 2 Exercises\Ex04_PitLake_Part_2.pqi
  Output file: P:\U7265 PHREEQC Workshop 2017\Project\Data\Workshop\Day 2 Exercises\Ex04_PitLake_Part_2.pqo
Database file: C:\Program Files (x86)\USGS\Phreeqc Interactive 3.4.0-12927\database\minteq.v4.dat

------------------
Reading data base.
------------------

	SOLUTION_MASTER_SPECIES
	SOLUTION_SPECIES
	SOLUTION_SPECIES
	PHASES
	PHASES
	SURFACE_MASTER_SPECIES
	SURFACE_SPECIES
	END
------------------------------------
Reading input data for simulation 1.
------------------------------------

	DATABASE C:\Program Files (x86)\USGS\Phreeqc Interactive 3.4.0-12927\database\minteq.v4.dat
	Title "Abandoned Pit Lake"
	SELECTED_OUTPUT
	    file                 Ex04_PitLake.xls
	    ph                   true
	    pe                   true
	    temperature          true
	    ionic_strength       true
	    water                true
	    percent_error        true
	    totals               Alkalinity  Cl  S(6)  Ca  Na  Mg K As Cd Fe
	    saturation_indices   Calcite  Gypsum  Ferrihydrite CO2(g) O2(g)
	    equilibrium_phases   Calcite  Gypsum  Ferrihydrite CO2(g) O2(g)
	USER_PUNCH
	Headings 	Cl(mg/L) SO4(mg/L) Ca(mg/L) Na(mg/L) Mg(mg/L) K(mg/L) As(mg/L) Cd(mg/L) Fe(mg/L)
	Start
	10	Punch tot("Cl")*35.5*1000
	20	Punch tot("S(6)")*96*1000
	30	Punch tot("Ca")*40.1*1000
	40	Punch tot("Na")*23*1000
	50	Punch tot("Mg")*24.3*1000
	60	Punch tot("K")*39.1*1000
	70	Punch tot("As")*74.9*1000
	80	Punch tot("Cd")*112.4*1000
	90	Punch tot("Fe")*55.8*1000
	End
-----
TITLE
-----

 "Abandoned Pit Lake"

------------------
End of simulation.
------------------

------------------------------------
Reading input data for simulation 2.
------------------------------------

	SOLUTION	1  PitWater		
		redox		pe		
		units		mg/L		
		density 	1		
		temp     	18
		pH		3.3		
		pe		4
		Cl		20		
		S(6)		2250		
		Ca 		610
		Na		185		
		Mg 		38
		K		37		
		As		1		
		Cd		0.2		
		Fe		15		
	water    		1 # kg			
	End				
-------------------------------------------
Beginning of initial solution calculations.
-------------------------------------------

Initial solution 1.	PitWater		

-----------------------------Solution composition------------------------------

	Elements           Molality       Moles

	As                1.339e-05   1.339e-05
	Ca                1.527e-02   1.527e-02
	Cd                1.785e-06   1.785e-06
	Cl                5.659e-04   5.659e-04
	Fe                2.694e-04   2.694e-04
	K                 9.493e-04   9.493e-04
	Mg                1.568e-03   1.568e-03
	Na                8.073e-03   8.073e-03
	S(6)              2.350e-02   2.350e-02

----------------------------Description of solution----------------------------

                                       pH  =   3.300    
                                       pe  =   4.000    
                        Activity of water  =   0.999
                 Ionic strength (mol/kgw)  =   5.816e-02
                       Mass of water (kg)  =   1.000e+00
                 Total alkalinity (eq/kg)  =  -9.595e-04
                    Total carbon (mol/kg)  =   0.000e+00
                       Total CO2 (mol/kg)  =   0.000e+00
                         Temperature (°C)  =  18.00
                  Electrical balance (eq)  =  -3.359e-03
 Percent error, 100*(Cat-|An|)/(Cat+|An|)  =  -5.30
                               Iterations  =   9
                                  Total H  = 1.110147e+02
                                  Total O  = 5.560086e+01

----------------------------Distribution of species----------------------------

                                               Log       Log       Log    mole V
   Species          Molality    Activity  Molality  Activity     Gamma   cm³/mol

   H+              6.154e-04   5.012e-04    -3.211    -3.300    -0.089      0.00
   OH-             1.455e-11   1.168e-11   -10.837   -10.932    -0.095     (0)  
   H2O             5.551e+01   9.993e-01     1.744    -0.000     0.000     18.04
As(3)         1.339e-05
   H3AsO3          1.338e-05   1.338e-05    -4.873    -4.873     0.000     (0)  
   H4AsO3+         4.396e-09   3.323e-09    -8.357    -8.478    -0.122     (0)  
   H2AsO3-         1.389e-11   1.050e-11   -10.857   -10.979    -0.122     (0)  
   HAsO3-2         4.291e-20   1.401e-20   -19.367   -19.854    -0.486     (0)  
   AsO3-3          1.047e-29   8.427e-31   -28.980   -30.074    -1.094     (0)  
As(5)         3.439e-09
   H2AsO4-         3.241e-09   2.449e-09    -8.489    -8.611    -0.122     (0)  
   H3AsO4          1.965e-10   1.991e-10    -9.707    -9.701     0.006     (0)  
   HAsO4-2         1.595e-12   5.205e-13   -11.797   -12.284    -0.486     (0)  
   AsO4-3          3.460e-20   2.785e-21   -19.461   -20.555    -1.094     (0)  
Ca            1.527e-02
   Ca+2            9.168e-03   4.033e-03    -2.038    -2.394    -0.357     (0)  
   CaSO4           6.100e-03   6.100e-03    -2.215    -2.215     0.000     (0)  
   CaOH+           1.049e-12   8.676e-13   -11.979   -12.062    -0.082     (0)  
Cd            1.785e-06
   Cd+2            9.350e-07   4.113e-07    -6.029    -6.386    -0.357     (0)  
   CdSO4           6.268e-07   6.268e-07    -6.203    -6.203     0.000     (0)  
   Cd(SO4)2-2      1.994e-07   6.506e-08    -6.700    -7.187    -0.486     (0)  
   CdCl+           2.372e-08   1.793e-08    -7.625    -7.746    -0.122     (0)  
   CdCl2           3.378e-11   3.378e-11   -10.471   -10.471     0.000     (0)  
   CdOH+           5.100e-14   3.855e-14   -13.292   -13.414    -0.122     (0)  
   CdOHCl          1.249e-14   1.249e-14   -13.903   -13.903     0.000     (0)  
   CdCl3-          1.214e-14   9.178e-15   -13.916   -14.037    -0.122     (0)  
   Cd2OH+3         1.077e-18   8.671e-20   -17.968   -19.062    -1.094     (0)  
   Cd(OH)2         8.308e-21   8.308e-21   -20.080   -20.080     0.000     (0)  
   Cd(OH)3-        1.348e-29   1.019e-29   -28.870   -28.992    -0.122     (0)  
   Cd(OH)4-2       1.026e-40   0.000e+00   -39.989   -40.475    -0.486     (0)  
Cl            5.659e-04
   Cl-             5.659e-04   4.609e-04    -3.247    -3.336    -0.089     (0)  
   CdCl+           2.372e-08   1.793e-08    -7.625    -7.746    -0.122     (0)  
   CdCl2           3.378e-11   3.378e-11   -10.471   -10.471     0.000     (0)  
   CdOHCl          1.249e-14   1.249e-14   -13.903   -13.903     0.000     (0)  
   CdCl3-          1.214e-14   9.178e-15   -13.916   -14.037    -0.122     (0)  
   FeCl+2          8.802e-16   3.944e-16   -15.055   -15.404    -0.349     (0)  
   FeCl2+          1.240e-18   1.015e-18   -17.906   -17.994    -0.087     (0)  
   FeCl3           4.677e-23   4.677e-23   -22.330   -22.330     0.000     (0)  
Fe(2)         2.694e-04
   Fe+2            1.768e-04   5.769e-05    -3.753    -4.239    -0.486     (0)  
   FeSO4           9.268e-05   9.268e-05    -4.033    -4.033     0.000     (0)  
   FeOH+           3.280e-11   2.683e-11   -10.484   -10.571    -0.087     (0)  
   Fe(OH)2         2.305e-19   2.305e-19   -18.637   -18.637     0.000     (0)  
   Fe(OH)3-        1.674e-24   1.370e-24   -23.776   -23.863    -0.087     (0)  
Fe(3)         8.435e-12
   Fe(OH)2+        4.363e-12   3.586e-12   -11.360   -11.445    -0.085     (0)  
   FeSO4+          2.696e-12   2.206e-12   -11.569   -11.656    -0.087     (0)  
   FeOH+2          6.831e-13   3.061e-13   -12.166   -12.514    -0.349     (0)  
   Fe(SO4)2-       4.668e-13   3.528e-13   -12.331   -12.452    -0.122     (0)  
   Fe+3            2.247e-13   3.542e-14   -12.648   -13.451    -0.802     (0)  
   FeCl+2          8.802e-16   3.944e-16   -15.055   -15.404    -0.349     (0)  
   Fe(OH)3         2.825e-17   2.825e-17   -16.549   -16.549     0.000     (0)  
   FeCl2+          1.240e-18   1.015e-18   -17.906   -17.994    -0.087     (0)  
   Fe2(OH)2+4      3.519e-22   3.991e-24   -21.454   -23.399    -1.945     (0)  
   Fe(OH)4-        1.759e-22   1.445e-22   -21.755   -21.840    -0.085     (0)  
   FeCl3           4.677e-23   4.677e-23   -22.330   -22.330     0.000     (0)  
   Fe3(OH)4+5      2.104e-31   1.921e-34   -30.677   -33.716    -3.039     (0)  
H(0)          3.769e-18
   H2              1.884e-18   1.910e-18   -17.725   -17.719     0.006     (0)  
K             9.493e-04
   K+              9.061e-04   7.380e-04    -3.043    -3.132    -0.089     (0)  
   KSO4-           4.321e-05   3.551e-05    -4.364    -4.450    -0.085     (0)  
Mg            1.568e-03
   Mg+2            1.022e-03   4.494e-04    -2.991    -3.347    -0.357     (0)  
   MgSO4           5.468e-04   5.468e-04    -3.262    -3.262     0.000     (0)  
   MgOH+           2.239e-12   1.861e-12   -11.650   -11.730    -0.080     (0)  
Na            8.073e-03
   Na+             7.782e-03   6.338e-03    -2.109    -2.198    -0.089     (0)  
   NaSO4-          2.901e-04   2.384e-04    -3.537    -3.623    -0.085     (0)  
O(0)          0.000e+00
   O2              0.000e+00   0.000e+00   -58.829   -58.823     0.006     (0)  
S(6)          2.350e-02
   SO4-2           1.608e-02   7.073e-03    -1.794    -2.150    -0.357     (0)  
   CaSO4           6.100e-03   6.100e-03    -2.215    -2.215     0.000     (0)  
   MgSO4           5.468e-04   5.468e-04    -3.262    -3.262     0.000     (0)  
   HSO4-           3.441e-04   2.799e-04    -3.463    -3.553    -0.090     (0)  
   NaSO4-          2.901e-04   2.384e-04    -3.537    -3.623    -0.085     (0)  
   FeSO4           9.268e-05   9.268e-05    -4.033    -4.033     0.000     (0)  
   KSO4-           4.321e-05   3.551e-05    -4.364    -4.450    -0.085     (0)  
   CdSO4           6.268e-07   6.268e-07    -6.203    -6.203     0.000     (0)  
   Cd(SO4)2-2      1.994e-07   6.506e-08    -6.700    -7.187    -0.486     (0)  
   FeSO4+          2.696e-12   2.206e-12   -11.569   -11.656    -0.087     (0)  
   Fe(SO4)2-       4.668e-13   3.528e-13   -12.331   -12.452    -0.122     (0)  

------------------------------Saturation indices-------------------------------

  Phase               SI** log IAP   log K(291 K,   1 atm)

  Anhydrite        -0.22     -4.54   -4.33  CaSO4
  Arsenolite      -16.48    -19.49   -3.01  As4O6
  As2O5           -26.20    -19.40    6.80  As2O5
  Brucite         -14.07      3.25   17.32  Mg(OH)2
  Ca3(AsO4)2:4H2O -29.09     -6.79   22.30  Ca3(AsO4)2:4H2O
  Cd(OH)2         -13.83      0.21   14.04  Cd(OH)2
  Cd(OH)2(am)     -13.88      0.21   14.10  Cd(OH)2
  Cd3(OH)2(SO4)2  -23.57    -16.86    6.71  Cd3(OH)2(SO4)2
  Cd3(OH)4SO4     -30.67     -8.11   22.56  Cd3(OH)4SO4
  Cd4(OH)6SO4     -36.30     -7.90   28.40  Cd4(OH)6SO4
  CdCl2           -12.48    -13.06   -0.58  CdCl2
  CdCl2:1H2O      -11.40    -13.06   -1.66  CdCl2:1H2O
  CdCl2:2.5H2O    -11.12    -13.06   -1.94  CdCl2:2.5H2O
  Cdmetal(alpha)  -28.22    -14.39   13.83  Cd
  Cdmetal(gamma)  -28.32    -14.39   13.94  Cd
  CdOHCl          -10.09     -6.42    3.67  CdOHCl
  CdSO4            -8.58     -8.54    0.05  CdSO4
  CdSO4:1H2O       -6.94     -8.54   -1.59  CdSO4:1H2O
  CdSO4:2.67H2O    -6.74     -8.54   -1.80  CdSO4:2.67H2O
  Claudetite      -16.19    -19.49   -3.30  As4O6
  Epsomite         -3.32     -5.50   -2.18  MgSO4:7H2O
  Fe(OH)2         -11.20      2.36   13.56  Fe(OH)2
  Fe(OH)2.7Cl.3    -2.50     -5.54   -3.04  Fe(OH)2.7Cl.3
  Fe2(SO4)3       -30.64    -33.35   -2.71  Fe2(SO4)3
  Fe3(OH)8        -24.97     -4.74   20.22  Fe3(OH)8
  FeAsO4:2H2O     -13.65    -13.25    0.40  FeAsO4:2H2O
  Ferrihydrite     -7.05     -3.55    3.50  Fe(OH)3
  Goethite         -4.30     -3.55    0.75  FeOOH
  Gypsum            0.07     -4.55   -4.61  CaSO4:2H2O
  H-Jarosite      -17.03    -28.16  -11.13  (H3O)Fe3(SO4)2(OH)6
  Halite           -7.12     -5.53    1.59  NaCl
  Hematite         -6.23     -7.10   -0.87  Fe2O3
  K-Jarosite      -13.74    -27.99  -14.25  KFe3(SO4)2(OH)6
  Lepidocrocite    -4.92     -3.55    1.37  FeOOH
  Lime            -29.31      4.21   33.52  CaO
  Maghemite       -13.49     -7.10    6.39  Fe2O3
  Magnesioferrite -21.88     -3.85   18.03  Fe2MgO4
  Magnetite        -9.02     -4.74    4.28  Fe3O4
  Melanterite      -4.10     -6.39   -2.30  FeSO4:7H2O
  Mg(OH)2(active) -15.54      3.25   18.79  Mg(OH)2
  Mirabilite       -5.10     -6.55   -1.45  Na2SO4:10H2O
  Monteponite     -15.33      0.21   15.54  CdO
  Na-Jarosite     -16.49    -27.05  -10.56  NaFe3(SO4)2(OH)6
  O2(g)           -56.30     29.20   85.50  O2
  Periclase       -18.97      3.25   22.22  MgO
  Portlandite     -19.14      4.21   23.35  Ca(OH)2
  Thenardite       -6.91     -6.55    0.36  Na2SO4

**For a gas, SI = log10(fugacity). Fugacity = pressure * phi / 1 atm.
  For ideal gases, phi = 1.

------------------
End of simulation.
------------------

------------------------------------
Reading input data for simulation 3.
------------------------------------

	EQUILIBRIUM_PHASES		1		
		Calcite 		0	0.05	#Treatment Plant 5g calcite per 1 L of water
		Ferrihydrite	0	0	
		Gypsum		0	0	
		CO2(g)		-3.5		
		O2(g)			-0.68		
	USE Solution 1
	SAVE Solution 2
	SAVE Equilibrium_Phases 2
	End				
-----------------------------------------
Beginning of batch-reaction calculations.
-----------------------------------------

Reaction step 1.

Using solution 1.	PitWater		
Using pure phase assemblage 1.	

-------------------------------Phase assemblage--------------------------------

                                                      Moles in assemblage
Phase               SI  log IAP  log K(T, P)   Initial       Final       Delta

CO2(g)           -3.50   -21.66    -18.16    1.000e+01   1.000e+01   5.204e-04
Calcite           0.00    -8.45     -8.45    5.000e-02   4.900e-02  -9.989e-04
Ferrihydrite     -0.00     3.50      3.50    0.000e+00   2.694e-04   2.694e-04
Gypsum            0.00    -4.61     -4.61    0.000e+00   2.877e-03   2.877e-03
O2(g)            -0.68    84.82     85.50    1.000e+01   9.999e+00  -6.905e-04

-----------------------------Solution composition------------------------------

	Elements           Molality       Moles

	As                1.339e-05   1.339e-05
	C                 4.786e-04   4.786e-04
	Ca                1.339e-02   1.339e-02
	Cd                1.785e-06   1.785e-06
	Cl                5.660e-04   5.659e-04
	Fe                1.840e-09   1.840e-09
	K                 9.494e-04   9.493e-04
	Mg                1.569e-03   1.568e-03
	Na                8.073e-03   8.073e-03
	S                 2.062e-02   2.062e-02

----------------------------Description of solution----------------------------

                                       pH  =   7.825      Charge balance
                                       pe  =  13.379      Adjusted to redox equilibrium
                        Activity of water  =   0.999
                 Ionic strength (mol/kgw)  =   5.258e-02
                       Mass of water (kg)  =   9.999e-01
                 Total alkalinity (eq/kg)  =   4.862e-04
                       Total CO2 (mol/kg)  =   4.786e-04
                         Temperature (°C)  =  18.00
                  Electrical balance (eq)  =  -3.359e-03
 Percent error, 100*(Cat-|An|)/(Cat+|An|)  =  -5.83
                               Iterations  =  20
                                  Total H  = 1.110023e+02
                                  Total O  = 5.558612e+01

----------------------------Distribution of species----------------------------

                                               Log       Log       Log    mole V
   Species          Molality    Activity  Molality  Activity     Gamma   cm³/mol

   OH-             4.837e-07   3.918e-07    -6.315    -6.407    -0.092     (0)  
   H+              1.822e-08   1.495e-08    -7.739    -7.825    -0.086      0.00
   H2O             5.551e+01   9.993e-01     1.744    -0.000     0.000     18.04
As(3)         1.594e-35
   H3AsO3          1.541e-35   1.541e-35   -34.812   -34.812     0.000     (0)  
   H2AsO3-         5.289e-37   4.053e-37   -36.277   -36.392    -0.116     (0)  
   HAsO3-2         0.000e+00   0.000e+00   -40.279   -40.742    -0.462     (0)  
   H4AsO3+         0.000e+00   0.000e+00   -42.827   -42.943    -0.116     (0)  
   AsO3-3          0.000e+00   0.000e+00   -45.396   -46.437    -1.040     (0)  
As(5)         1.339e-05
   HAsO4-2         1.259e-05   4.341e-06    -4.900    -5.362    -0.462     (0)  
   H2AsO4-         7.950e-07   6.092e-07    -6.100    -6.215    -0.116     (0)  
   AsO4-3          8.546e-09   7.788e-10    -8.068    -9.109    -1.040     (0)  
   H3AsO4          1.459e-12   1.477e-12   -11.836   -11.831     0.005     (0)  
C(4)          4.786e-04
   HCO3-           4.303e-04   3.561e-04    -3.366    -3.448    -0.082     (0)  
   CaHCO3+         2.422e-05   2.016e-05    -4.616    -4.695    -0.080     (0)  
   H2CO3           1.308e-05   1.308e-05    -4.883    -4.883     0.000     (0)  
   CaCO3           4.856e-06   4.856e-06    -5.314    -5.314     0.000     (0)  
   CO3-2           2.142e-06   9.694e-07    -5.669    -6.014    -0.344     (0)  
   MgHCO3+         2.014e-06   1.642e-06    -5.696    -5.785    -0.089     (0)  
   NaHCO3          1.464e-06   1.464e-06    -5.835    -5.835     0.000     (0)  
   MgCO3           3.361e-07   3.361e-07    -6.473    -6.473     0.000     (0)  
   NaCO3-          1.700e-07   1.407e-07    -6.770    -6.852    -0.082     (0)  
   CdCO3           9.585e-09   9.585e-09    -8.018    -8.018     0.000     (0)  
   CdHCO3+         3.983e-10   3.052e-10    -9.400    -9.515    -0.116     (0)  
   Cd(CO3)2-2      1.997e-11   6.888e-12   -10.700   -11.162    -0.462     (0)  
   FeHCO3+         3.367e-23   2.802e-23   -22.473   -22.553    -0.080     (0)  
Ca            1.339e-02
   Ca+2            8.157e-03   3.692e-03    -2.088    -2.433    -0.344     (0)  
   CaSO4           5.206e-03   5.206e-03    -2.284    -2.284     0.000     (0)  
   CaHCO3+         2.422e-05   2.016e-05    -4.616    -4.695    -0.080     (0)  
   CaCO3           4.856e-06   4.856e-06    -5.314    -5.314     0.000     (0)  
   CaOH+           3.199e-08   2.663e-08    -7.495    -7.575    -0.080     (0)  
Cd            1.785e-06
   Cd+2            9.586e-07   4.338e-07    -6.018    -6.363    -0.344     (0)  
   CdSO4           6.163e-07   6.163e-07    -6.210    -6.210     0.000     (0)  
   Cd(SO4)2-2      1.730e-07   5.965e-08    -6.762    -7.224    -0.462     (0)  
   CdCl+           2.485e-08   1.905e-08    -7.605    -7.720    -0.116     (0)  
   CdCO3           9.585e-09   9.585e-09    -8.018    -8.018     0.000     (0)  
   CdOH+           1.779e-09   1.363e-09    -8.750    -8.865    -0.116     (0)  
   CdOHCl          4.450e-10   4.450e-10    -9.352    -9.352     0.000     (0)  
   CdHCO3+         3.983e-10   3.052e-10    -9.400    -9.515    -0.116     (0)  
   CdCl2           3.615e-11   3.615e-11   -10.442   -10.442     0.000     (0)  
   Cd(CO3)2-2      1.997e-11   6.888e-12   -10.700   -11.162    -0.462     (0)  
   Cd(OH)2         9.853e-12   9.853e-12   -11.006   -11.006     0.000     (0)  
   Cd2OH+3         3.549e-14   3.234e-15   -13.450   -14.490    -1.040     (0)  
   CdCl3-          1.291e-14   9.892e-15   -13.889   -14.005    -0.116     (0)  
   Cd(OH)3-        5.288e-16   4.053e-16   -15.277   -15.392    -0.116     (0)  
   Cd(OH)4-2       1.295e-22   4.466e-23   -21.888   -22.350    -0.462     (0)  
   CdHS+           0.000e+00   0.000e+00  -143.966  -144.082    -0.116     (0)  
   Cd(HS)2         0.000e+00   0.000e+00  -282.605  -282.605     0.000     (0)  
   Cd(HS)3-        0.000e+00   0.000e+00  -426.317  -426.433    -0.116     (0)  
   Cd(HS)4-2       0.000e+00   0.000e+00  -569.502  -569.964    -0.462     (0)  
Cl            5.660e-04
   Cl-             5.659e-04   4.642e-04    -3.247    -3.333    -0.086     (0)  
   CdCl+           2.485e-08   1.905e-08    -7.605    -7.720    -0.116     (0)  
   CdOHCl          4.450e-10   4.450e-10    -9.352    -9.352     0.000     (0)  
   CdCl2           3.615e-11   3.615e-11   -10.442   -10.442     0.000     (0)  
   CdCl3-          1.291e-14   9.892e-15   -13.889   -14.005    -0.116     (0)  
   FeCl+2          2.574e-22   1.187e-22   -21.589   -21.926    -0.336     (0)  
   FeCl2+          3.733e-25   3.076e-25   -24.428   -24.512    -0.084     (0)  
   FeCl3           1.428e-29   1.428e-29   -28.845   -28.845     0.000     (0)  
Fe(2)         3.184e-20
   Fe+2            2.088e-20   7.202e-21   -19.680   -20.143    -0.462     (0)  
   FeSO4           1.079e-20   1.079e-20   -19.967   -19.967     0.000     (0)  
   FeOH+           1.363e-22   1.123e-22   -21.865   -21.949    -0.084     (0)  
   FeHCO3+         3.367e-23   2.802e-23   -22.473   -22.553    -0.080     (0)  
   Fe(OH)2         3.235e-26   3.235e-26   -25.490   -25.490     0.000     (0)  
   Fe(OH)3-        7.824e-27   6.447e-27   -26.107   -26.191    -0.084     (0)  
   Fe(HS)2         0.000e+00   0.000e+00  -302.647  -302.647     0.000     (0)  
   Fe(HS)3-        0.000e+00   0.000e+00  -446.222  -446.338    -0.116     (0)  
Fe(3)         1.840e-09
   Fe(OH)2+        1.456e-09   1.205e-09    -8.837    -8.919    -0.082     (0)  
   Fe(OH)3         3.183e-10   3.183e-10    -9.497    -9.497     0.000     (0)  
   Fe(OH)4-        6.598e-11   5.460e-11   -10.181   -10.263    -0.082     (0)  
   FeOH+2          6.650e-15   3.067e-15   -14.177   -14.513    -0.336     (0)  
   FeSO4+          7.456e-19   6.145e-19   -18.127   -18.212    -0.084     (0)  
   Fe(SO4)2-       1.196e-19   9.164e-20   -18.922   -19.038    -0.116     (0)  
   Fe+3            6.300e-20   1.058e-20   -19.201   -19.975    -0.775     (0)  
   FeCl+2          2.574e-22   1.187e-22   -21.589   -21.926    -0.336     (0)  
   FeCl2+          3.733e-25   3.076e-25   -24.428   -24.512    -0.084     (0)  
   Fe2(OH)2+4      2.834e-26   4.007e-28   -25.548   -27.397    -1.850     (0)  
   FeCl3           1.428e-29   1.428e-29   -28.845   -28.845     0.000     (0)  
   Fe3(OH)4+5      5.029e-33   6.481e-36   -32.299   -35.188    -2.890     (0)  
H(0)          0.000e+00
   H2              0.000e+00   0.000e+00   -45.533   -45.528     0.005     (0)  
K             9.494e-04
   K+              9.090e-04   7.456e-04    -3.041    -3.128    -0.086     (0)  
   KSO4-           4.042e-05   3.345e-05    -4.393    -4.476    -0.082     (0)  
Mg            1.569e-03
   Mg+2            1.035e-03   4.684e-04    -2.985    -3.329    -0.344     (0)  
   MgSO4           5.313e-04   5.313e-04    -3.275    -3.275     0.000     (0)  
   MgHCO3+         2.014e-06   1.642e-06    -5.696    -5.785    -0.089     (0)  
   MgCO3           3.361e-07   3.361e-07    -6.473    -6.473     0.000     (0)  
   MgOH+           7.777e-08   6.503e-08    -7.109    -7.187    -0.078     (0)  
Na            8.073e-03
   Na+             7.801e-03   6.398e-03    -2.108    -2.194    -0.086     (0)  
   NaSO4-          2.712e-04   2.244e-04    -3.567    -3.649    -0.082     (0)  
   NaHCO3          1.464e-06   1.464e-06    -5.835    -5.835     0.000     (0)  
   NaCO3-          1.700e-07   1.407e-07    -6.770    -6.852    -0.082     (0)  
O(0)          1.233e-03
   O2              6.165e-04   6.240e-04    -3.210    -3.205     0.005     (0)  
S(-2)         0.000e+00
   CdHS+           0.000e+00   0.000e+00  -143.966  -144.082    -0.116     (0)  
   HS-             0.000e+00   0.000e+00  -145.612  -145.727    -0.116     (0)  
   H2S             0.000e+00   0.000e+00  -146.440  -146.440     0.000     (0)  
   S5-2            0.000e+00   0.000e+00  -146.963  -147.425    -0.462     (0)  
   S6-2            0.000e+00   0.000e+00  -147.321  -147.783    -0.462     (0)  
   S4-2            0.000e+00   0.000e+00  -147.566  -148.028    -0.462     (0)  
   S3-2            0.000e+00   0.000e+00  -148.384  -148.846    -0.462     (0)  
   S2-2            0.000e+00   0.000e+00  -149.418  -149.880    -0.462     (0)  
   S-2             0.000e+00   0.000e+00  -155.074  -155.410    -0.336     (0)  
   Cd(HS)2         0.000e+00   0.000e+00  -282.605  -282.605     0.000     (0)  
   Fe(HS)2         0.000e+00   0.000e+00  -302.647  -302.647     0.000     (0)  
   Cd(HS)3-        0.000e+00   0.000e+00  -426.317  -426.433    -0.116     (0)  
   Fe(HS)3-        0.000e+00   0.000e+00  -446.222  -446.338    -0.116     (0)  
   Cd(HS)4-2       0.000e+00   0.000e+00  -569.502  -569.964    -0.462     (0)  
S(6)          2.062e-02
   SO4-2           1.457e-02   6.594e-03    -1.837    -2.181    -0.344     (0)  
   CaSO4           5.206e-03   5.206e-03    -2.284    -2.284     0.000     (0)  
   MgSO4           5.313e-04   5.313e-04    -3.275    -3.275     0.000     (0)  
   NaSO4-          2.712e-04   2.244e-04    -3.567    -3.649    -0.082     (0)  
   KSO4-           4.042e-05   3.345e-05    -4.393    -4.476    -0.082     (0)  
   CdSO4           6.163e-07   6.163e-07    -6.210    -6.210     0.000     (0)  
   Cd(SO4)2-2      1.730e-07   5.965e-08    -6.762    -7.224    -0.462     (0)  
   HSO4-           9.495e-09   7.782e-09    -8.023    -8.109    -0.086     (0)  
   FeSO4+          7.456e-19   6.145e-19   -18.127   -18.212    -0.084     (0)  
   Fe(SO4)2-       1.196e-19   9.164e-20   -18.922   -19.038    -0.116     (0)  
   FeSO4           1.079e-20   1.079e-20   -19.967   -19.967     0.000     (0)  

------------------------------Saturation indices-------------------------------

  Phase               SI** log IAP   log K(291 K,   1 atm)

  Anhydrite        -0.28     -4.61   -4.33  CaSO4
  Aragonite        -0.20     -8.45   -8.25  CaCO3
  Arsenolite     -136.23   -139.25   -3.01  As4O6
  Artinite         -7.13      2.98   10.11  MgCO3:Mg(OH)2:3H2O
  As2O5           -30.46    -23.66    6.80  As2O5
  Brucite          -5.00     12.32   17.32  Mg(OH)2
  Ca3(AsO4)2:4H2O  -6.31     15.99   22.30  Ca3(AsO4)2:4H2O
  Calcite           0.00     -8.45   -8.45  CaCO3
  Cd(OH)2          -4.75      9.29   14.04  Cd(OH)2
  Cd(OH)2(am)      -4.81      9.29   14.10  Cd(OH)2
  Cd3(OH)2(SO4)2  -14.51     -7.80    6.71  Cd3(OH)2(SO4)2
  Cd3(OH)4SO4     -12.53     10.03   22.56  Cd3(OH)4SO4
  Cd4(OH)6SO4      -9.08     19.32   28.40  Cd4(OH)6SO4
  CdCl2           -12.45    -13.03   -0.58  CdCl2
  CdCl2:1H2O      -11.37    -13.03   -1.66  CdCl2:1H2O
  CdCl2:2.5H2O    -11.09    -13.03   -1.94  CdCl2:2.5H2O
  Cdmetal(alpha)  -46.95    -33.12   13.83  Cd
  Cdmetal(gamma)  -47.06    -33.12   13.94  Cd
  CdOHCl           -5.54     -1.87    3.67  CdOHCl
  CdSO4            -8.59     -8.54    0.05  CdSO4
  CdSO4:1H2O       -6.95     -8.54   -1.59  CdSO4:1H2O
  CdSO4:2.67H2O    -6.75     -8.54   -1.80  CdSO4:2.67H2O
  CH4(g)         -149.17   -191.30  -42.13  CH4
  Claudetite     -135.95   -139.25   -3.30  As4O6
  CO2(g)           -3.50    -21.66  -18.16  CO2
  Dolomite(disordered)  -1.44    -17.79  -16.34  CaMg(CO3)2
  Dolomite(ordered)  -0.87    -17.79  -16.92  CaMg(CO3)2
  Epsomite         -3.34     -5.51   -2.18  MgSO4:7H2O
  Fe(OH)2         -18.06     -4.49   13.56  Fe(OH)2
  Fe(OH)2.7Cl.3     3.19      0.15   -3.04  Fe(OH)2.7Cl.3
  Fe2(SO4)3       -43.78    -46.49   -2.71  Fe2(SO4)3
  Fe3(OH)8        -17.71      2.51   20.22  Fe3(OH)8
  FeAsO4:2H2O      -8.73     -8.33    0.40  FeAsO4:2H2O
  Ferrihydrite     -0.00      3.50    3.50  Fe(OH)3
  FeS(ppt)       -155.14   -158.04   -2.90  FeS
  Goethite          2.75      3.50    0.75  FeOOH
  Greenockite    -129.67   -144.26  -14.59  CdS
  Greigite       -566.67   -611.70  -45.03  Fe3S4
  Gypsum            0.00     -4.61   -4.61  CaSO4:2H2O
  H-Jarosite      -14.03    -25.16  -11.13  (H3O)Fe3(SO4)2(OH)6
  H2S(g)         -145.54   -153.55   -8.01  H2S
  Halite           -7.11     -5.53    1.59  NaCl
  Hematite          7.88      7.00   -0.87  Fe2O3
  Huntite          -6.96    -36.48  -29.51  CaMg3(CO3)4
  Hydromagnesite  -17.21    -25.05   -7.85  Mg5(CO3)4(OH)2:4H2O
  K-Jarosite       -6.22    -20.46  -14.25  KFe3(SO4)2(OH)6
  Lepidocrocite     2.13      3.50    1.37  FeOOH
  Lime            -20.30     13.22   33.52  CaO
  Mackinawite    -154.44   -158.04   -3.60  FeS
  Maghemite         0.61      7.00    6.39  Fe2O3
  Magnesioferrite   1.29     19.32   18.03  Fe2MgO4
  Magnesite        -1.80     -9.34   -7.54  MgCO3
  Magnetite        -1.77      2.51    4.28  Fe3O4
  Melanterite     -20.03    -22.33   -2.30  FeSO4:7H2O
  Mg(OH)2(active)  -6.47     12.32   18.79  Mg(OH)2
  Mirabilite       -5.12     -6.57   -1.45  Na2SO4:10H2O
  Monteponite      -6.25      9.29   15.54  CdO
  Na-Jarosite      -8.97    -19.53  -10.56  NaFe3(SO4)2(OH)6
  Natron           -8.82    -10.40   -1.59  Na2CO3:10H2O
  Nesquehonite     -4.78     -9.34   -4.57  MgCO3:3H2O
  O2(g)            -0.68     84.82   85.50  O2
  Orpiment       -467.74   -530.28  -62.54  As2S3
  Otavite          -0.38    -12.38  -12.00  CdCO3
  Periclase        -9.90     12.32   22.22  MgO
  Portlandite     -10.13     13.22   23.35  Ca(OH)2
  Pyrite         -250.47   -269.19  -18.72  FeS2
  Realgar        -189.28   -209.57  -20.29  AsS
  Siderite        -15.98    -26.16  -10.17  FeCO3
  Sulfur         -109.07   -111.14   -2.08  S
  Thenardite       -6.93     -6.57    0.36  Na2SO4
  Thermonatrite   -11.08    -10.40    0.68  Na2CO3:H2O

**For a gas, SI = log10(fugacity). Fugacity = pressure * phi / 1 atm.
  For ideal gases, phi = 1.

------------------
End of simulation.
------------------

------------------------------------
Reading input data for simulation 4.
------------------------------------

	Surface	1
		    Hfo_sOH Ferrihydrite         equilibrium_phase 0.005 600		
		    Hfo_wOH Ferrihydrite	   equilibrium_phase 0.2
		    donnan 	1.00E-08	
	USE EQUILIBRIUM_PHASES		1	
	USE Surface		1	
	USE Solution	2	
	SAVE Solution 	3	
	END			
-----------------------------------------
Beginning of batch-reaction calculations.
-----------------------------------------

Reaction step 1.

Using solution 2.	Solution after simulation 3.
Using surface 1.	
Using pure phase assemblage 1.	

-------------------------------Phase assemblage--------------------------------

                                                      Moles in assemblage
Phase               SI  log IAP  log K(T, P)   Initial       Final       Delta

CO2(g)           -3.50   -21.66    -18.16    1.000e+01   1.000e+01   0.000e+00
Calcite           0.00    -8.45     -8.45    5.000e-02   5.000e-02  -9.714e-17
Ferrihydrite     -0.00     3.50      3.50    0.000e+00           0   0.000e+00
Gypsum           -0.00    -4.61     -4.61    0.000e+00           0   0.000e+00
O2(g)            -0.68    84.82     85.50    1.000e+01   1.000e+01  -1.776e-15

------------------------------Surface composition------------------------------

Diffuse Double Layer Surface-Complexation Model

Hfo           
	  2.685e-25  Surface + diffuse layer charge, eq
	  2.685e-25  Surface charge, eq
	undefined  sigma, C/m²
	 -4.211e-02  psi, V
	  1.679e+00  -F*psi/RT
	  5.358e+00  exp(-F*psi/RT)
	  6.000e+02  specific area, m²/mol Ferrihydrite
	  0.000e+00  m² for   0.000e+00 moles of Ferrihydrite

	Water in diffuse layer: 0.000e+00 kg,  0.0% of total DDL-water.

Hfo_s         
	  0.000e+00  moles	[0.005 mol/(mol Ferrihydrite)]
	                                   Mole                     Log
	Species               Moles    Fraction    Molality    Molality

	Hfo_sOHCa+2       8.504e-27       0.000   8.504e-27     -26.070
	Hfo_sOCd+         3.946e-28       0.000   3.946e-28     -27.404
	Hfo_sOH2+         1.343e-30       0.000   1.343e-30     -29.872
	Hfo_sOH           8.599e-31       0.000   8.600e-31     -30.066
	Hfo_sOHAsO4-3     1.876e-31       0.000   1.876e-31     -30.727
	Hfo_sO-           1.262e-32       0.000   1.262e-32     -31.899
	Hfo_sHAsO4-       1.025e-32       0.000   1.025e-32     -31.989
	Hfo_sOHSO4-2      1.218e-33       0.000   1.218e-33     -32.914
	Hfo_sSO4-         9.539e-34       0.000   9.540e-34     -33.020
	Hfo_sH2AsO4       5.178e-34       0.000   5.178e-34     -33.286
	Hfo_sH2AsO3       3.408e-60       0.000   3.409e-60     -59.467

Hfo_w         
	  0.000e+00  moles	[0.2 mol/(mol Ferrihydrite)]
	                                   Mole                     Log
	Species               Moles    Fraction    Molality    Molality

	Hfo_wOMg+         1.479e-25       0.000   1.479e-25     -24.830
	Hfo_wOCa+         6.556e-26       0.000   6.556e-26     -25.183
	Hfo_wOH2+         5.477e-26       0.000   5.477e-26     -25.261
	Hfo_wOH           3.507e-26       0.000   3.508e-26     -25.455
	Hfo_wOHAsO4-3     7.652e-27       0.000   7.653e-27     -26.116
	Hfo_wOCd+         6.866e-27       0.000   6.867e-27     -26.163
	Hfo_wO-           5.146e-28       0.000   5.146e-28     -27.289
	Hfo_wHAsO4-       4.180e-28       0.000   4.180e-28     -27.379
	Hfo_wOHSO4-2      4.968e-29       0.000   4.969e-29     -28.304
	Hfo_wSO4-         3.891e-29       0.000   3.891e-29     -28.410
	Hfo_wH2AsO4       2.112e-29       0.000   2.112e-29     -28.675
	Hfo_wH2AsO3       1.390e-55       0.000   1.390e-55     -54.857

-----------------------------Solution composition------------------------------

	Elements           Molality       Moles

	As                1.339e-05   1.339e-05
	C                 4.786e-04   4.786e-04
	Ca                1.339e-02   1.339e-02
	Cd                1.785e-06   1.785e-06
	Cl                5.660e-04   5.659e-04
	Fe                1.840e-09   1.840e-09
	K                 9.494e-04   9.493e-04
	Mg                1.569e-03   1.568e-03
	Na                8.073e-03   8.073e-03
	S                 2.062e-02   2.062e-02

----------------------------Description of solution----------------------------

                                       pH  =   7.825      Charge balance
                                       pe  =  13.379      Adjusted to redox equilibrium
                        Activity of water  =   0.999
                 Ionic strength (mol/kgw)  =   5.258e-02
                       Mass of water (kg)  =   9.999e-01
                 Total alkalinity (eq/kg)  =   4.862e-04
                       Total CO2 (mol/kg)  =   4.786e-04
                         Temperature (°C)  =  18.00
                  Electrical balance (eq)  =  -3.359e-03
 Percent error, 100*(Cat-|An|)/(Cat+|An|)  =  -5.83
                               Iterations  =   1
                                  Total H  = 1.110023e+02
                                  Total O  = 5.558612e+01

----------------------------Distribution of species----------------------------

                                               Log       Log       Log    mole V
   Species          Molality    Activity  Molality  Activity     Gamma   cm³/mol

   OH-             4.837e-07   3.918e-07    -6.315    -6.407    -0.092     (0)  
   H+              1.822e-08   1.495e-08    -7.739    -7.825    -0.086      0.00
   H2O             5.551e+01   9.993e-01     1.744    -0.000     0.000     18.04
As(3)         1.594e-35
   H3AsO3          1.541e-35   1.541e-35   -34.812   -34.812     0.000     (0)  
   H2AsO3-         5.289e-37   4.053e-37   -36.277   -36.392    -0.116     (0)  
   HAsO3-2         0.000e+00   0.000e+00   -40.279   -40.742    -0.462     (0)  
   H4AsO3+         0.000e+00   0.000e+00   -42.827   -42.943    -0.116     (0)  
   AsO3-3          0.000e+00   0.000e+00   -45.396   -46.437    -1.040     (0)  
As(5)         1.339e-05
   HAsO4-2         1.259e-05   4.341e-06    -4.900    -5.362    -0.462     (0)  
   H2AsO4-         7.950e-07   6.092e-07    -6.100    -6.215    -0.116     (0)  
   AsO4-3          8.546e-09   7.788e-10    -8.068    -9.109    -1.040     (0)  
   H3AsO4          1.459e-12   1.477e-12   -11.836   -11.831     0.005     (0)  
C(4)          4.786e-04
   HCO3-           4.303e-04   3.561e-04    -3.366    -3.448    -0.082     (0)  
   CaHCO3+         2.422e-05   2.016e-05    -4.616    -4.695    -0.080     (0)  
   H2CO3           1.308e-05   1.308e-05    -4.883    -4.883     0.000     (0)  
   CaCO3           4.856e-06   4.856e-06    -5.314    -5.314     0.000     (0)  
   CO3-2           2.142e-06   9.694e-07    -5.669    -6.014    -0.344     (0)  
   MgHCO3+         2.014e-06   1.642e-06    -5.696    -5.785    -0.089     (0)  
   NaHCO3          1.464e-06   1.464e-06    -5.835    -5.835     0.000     (0)  
   MgCO3           3.361e-07   3.361e-07    -6.473    -6.473     0.000     (0)  
   NaCO3-          1.700e-07   1.407e-07    -6.770    -6.852    -0.082     (0)  
   CdCO3           9.585e-09   9.585e-09    -8.018    -8.018     0.000     (0)  
   CdHCO3+         3.983e-10   3.052e-10    -9.400    -9.515    -0.116     (0)  
   Cd(CO3)2-2      1.997e-11   6.888e-12   -10.700   -11.162    -0.462     (0)  
   FeHCO3+         3.367e-23   2.802e-23   -22.473   -22.553    -0.080     (0)  
Ca            1.339e-02
   Ca+2            8.157e-03   3.692e-03    -2.088    -2.433    -0.344     (0)  
   CaSO4           5.206e-03   5.206e-03    -2.284    -2.284     0.000     (0)  
   CaHCO3+         2.422e-05   2.016e-05    -4.616    -4.695    -0.080     (0)  
   CaCO3           4.856e-06   4.856e-06    -5.314    -5.314     0.000     (0)  
   CaOH+           3.199e-08   2.663e-08    -7.495    -7.575    -0.080     (0)  
Cd            1.785e-06
   Cd+2            9.586e-07   4.338e-07    -6.018    -6.363    -0.344     (0)  
   CdSO4           6.163e-07   6.163e-07    -6.210    -6.210     0.000     (0)  
   Cd(SO4)2-2      1.730e-07   5.965e-08    -6.762    -7.224    -0.462     (0)  
   CdCl+           2.485e-08   1.905e-08    -7.605    -7.720    -0.116     (0)  
   CdCO3           9.585e-09   9.585e-09    -8.018    -8.018     0.000     (0)  
   CdOH+           1.779e-09   1.363e-09    -8.750    -8.865    -0.116     (0)  
   CdOHCl          4.450e-10   4.450e-10    -9.352    -9.352     0.000     (0)  
   CdHCO3+         3.983e-10   3.052e-10    -9.400    -9.515    -0.116     (0)  
   CdCl2           3.615e-11   3.615e-11   -10.442   -10.442     0.000     (0)  
   Cd(CO3)2-2      1.997e-11   6.888e-12   -10.700   -11.162    -0.462     (0)  
   Cd(OH)2         9.853e-12   9.853e-12   -11.006   -11.006     0.000     (0)  
   Cd2OH+3         3.549e-14   3.234e-15   -13.450   -14.490    -1.040     (0)  
   CdCl3-          1.291e-14   9.892e-15   -13.889   -14.005    -0.116     (0)  
   Cd(OH)3-        5.288e-16   4.053e-16   -15.277   -15.392    -0.116     (0)  
   Cd(OH)4-2       1.295e-22   4.466e-23   -21.888   -22.350    -0.462     (0)  
   CdHS+           0.000e+00   0.000e+00  -143.966  -144.082    -0.116     (0)  
   Cd(HS)2         0.000e+00   0.000e+00  -282.605  -282.605     0.000     (0)  
   Cd(HS)3-        0.000e+00   0.000e+00  -426.317  -426.433    -0.116     (0)  
   Cd(HS)4-2       0.000e+00   0.000e+00  -569.502  -569.964    -0.462     (0)  
Cl            5.660e-04
   Cl-             5.659e-04   4.642e-04    -3.247    -3.333    -0.086     (0)  
   CdCl+           2.485e-08   1.905e-08    -7.605    -7.720    -0.116     (0)  
   CdOHCl          4.450e-10   4.450e-10    -9.352    -9.352     0.000     (0)  
   CdCl2           3.615e-11   3.615e-11   -10.442   -10.442     0.000     (0)  
   CdCl3-          1.291e-14   9.892e-15   -13.889   -14.005    -0.116     (0)  
   FeCl+2          2.574e-22   1.187e-22   -21.589   -21.926    -0.336     (0)  
   FeCl2+          3.733e-25   3.076e-25   -24.428   -24.512    -0.084     (0)  
   FeCl3           1.428e-29   1.428e-29   -28.845   -28.845     0.000     (0)  
Fe(2)         3.184e-20
   Fe+2            2.088e-20   7.202e-21   -19.680   -20.143    -0.462     (0)  
   FeSO4           1.079e-20   1.079e-20   -19.967   -19.967     0.000     (0)  
   FeOH+           1.363e-22   1.123e-22   -21.865   -21.949    -0.084     (0)  
   FeHCO3+         3.367e-23   2.802e-23   -22.473   -22.553    -0.080     (0)  
   Fe(OH)2         3.235e-26   3.235e-26   -25.490   -25.490     0.000     (0)  
   Fe(OH)3-        7.824e-27   6.447e-27   -26.107   -26.191    -0.084     (0)  
   Fe(HS)2         0.000e+00   0.000e+00  -302.647  -302.647     0.000     (0)  
   Fe(HS)3-        0.000e+00   0.000e+00  -446.222  -446.338    -0.116     (0)  
Fe(3)         1.840e-09
   Fe(OH)2+        1.456e-09   1.205e-09    -8.837    -8.919    -0.082     (0)  
   Fe(OH)3         3.183e-10   3.183e-10    -9.497    -9.497     0.000     (0)  
   Fe(OH)4-        6.598e-11   5.460e-11   -10.181   -10.263    -0.082     (0)  
   FeOH+2          6.650e-15   3.067e-15   -14.177   -14.513    -0.336     (0)  
   FeSO4+          7.456e-19   6.145e-19   -18.127   -18.212    -0.084     (0)  
   Fe(SO4)2-       1.196e-19   9.164e-20   -18.922   -19.038    -0.116     (0)  
   Fe+3            6.300e-20   1.058e-20   -19.201   -19.975    -0.775     (0)  
   FeCl+2          2.574e-22   1.187e-22   -21.589   -21.926    -0.336     (0)  
   FeCl2+          3.733e-25   3.076e-25   -24.428   -24.512    -0.084     (0)  
   Fe2(OH)2+4      2.834e-26   4.007e-28   -25.548   -27.397    -1.850     (0)  
   FeCl3           1.428e-29   1.428e-29   -28.845   -28.845     0.000     (0)  
   Fe3(OH)4+5      5.029e-33   6.481e-36   -32.299   -35.188    -2.890     (0)  
H(0)          0.000e+00
   H2              0.000e+00   0.000e+00   -45.533   -45.528     0.005     (0)  
K             9.494e-04
   K+              9.090e-04   7.456e-04    -3.041    -3.128    -0.086     (0)  
   KSO4-           4.042e-05   3.345e-05    -4.393    -4.476    -0.082     (0)  
Mg            1.569e-03
   Mg+2            1.035e-03   4.684e-04    -2.985    -3.329    -0.344     (0)  
   MgSO4           5.313e-04   5.313e-04    -3.275    -3.275     0.000     (0)  
   MgHCO3+         2.014e-06   1.642e-06    -5.696    -5.785    -0.089     (0)  
   MgCO3           3.361e-07   3.361e-07    -6.473    -6.473     0.000     (0)  
   MgOH+           7.777e-08   6.503e-08    -7.109    -7.187    -0.078     (0)  
Na            8.073e-03
   Na+             7.801e-03   6.398e-03    -2.108    -2.194    -0.086     (0)  
   NaSO4-          2.712e-04   2.244e-04    -3.567    -3.649    -0.082     (0)  
   NaHCO3          1.464e-06   1.464e-06    -5.835    -5.835     0.000     (0)  
   NaCO3-          1.700e-07   1.407e-07    -6.770    -6.852    -0.082     (0)  
O(0)          1.233e-03
   O2              6.165e-04   6.240e-04    -3.210    -3.205     0.005     (0)  
S(-2)         0.000e+00
   CdHS+           0.000e+00   0.000e+00  -143.966  -144.082    -0.116     (0)  
   HS-             0.000e+00   0.000e+00  -145.612  -145.727    -0.116     (0)  
   H2S             0.000e+00   0.000e+00  -146.440  -146.440     0.000     (0)  
   S5-2            0.000e+00   0.000e+00  -146.963  -147.425    -0.462     (0)  
   S6-2            0.000e+00   0.000e+00  -147.321  -147.783    -0.462     (0)  
   S4-2            0.000e+00   0.000e+00  -147.566  -148.028    -0.462     (0)  
   S3-2            0.000e+00   0.000e+00  -148.384  -148.846    -0.462     (0)  
   S2-2            0.000e+00   0.000e+00  -149.418  -149.880    -0.462     (0)  
   S-2             0.000e+00   0.000e+00  -155.074  -155.410    -0.336     (0)  
   Cd(HS)2         0.000e+00   0.000e+00  -282.605  -282.605     0.000     (0)  
   Fe(HS)2         0.000e+00   0.000e+00  -302.647  -302.647     0.000     (0)  
   Cd(HS)3-        0.000e+00   0.000e+00  -426.317  -426.433    -0.116     (0)  
   Fe(HS)3-        0.000e+00   0.000e+00  -446.222  -446.338    -0.116     (0)  
   Cd(HS)4-2       0.000e+00   0.000e+00  -569.502  -569.964    -0.462     (0)  
S(6)          2.062e-02
   SO4-2           1.457e-02   6.594e-03    -1.837    -2.181    -0.344     (0)  
   CaSO4           5.206e-03   5.206e-03    -2.284    -2.284     0.000     (0)  
   MgSO4           5.313e-04   5.313e-04    -3.275    -3.275     0.000     (0)  
   NaSO4-          2.712e-04   2.244e-04    -3.567    -3.649    -0.082     (0)  
   KSO4-           4.042e-05   3.345e-05    -4.393    -4.476    -0.082     (0)  
   CdSO4           6.163e-07   6.163e-07    -6.210    -6.210     0.000     (0)  
   Cd(SO4)2-2      1.730e-07   5.965e-08    -6.762    -7.224    -0.462     (0)  
   HSO4-           9.495e-09   7.782e-09    -8.023    -8.109    -0.086     (0)  
   FeSO4+          7.456e-19   6.145e-19   -18.127   -18.212    -0.084     (0)  
   Fe(SO4)2-       1.196e-19   9.164e-20   -18.922   -19.038    -0.116     (0)  
   FeSO4           1.079e-20   1.079e-20   -19.967   -19.967     0.000     (0)  

------------------------------Saturation indices-------------------------------

  Phase               SI** log IAP   log K(291 K,   1 atm)

  Anhydrite        -0.28     -4.61   -4.33  CaSO4
  Aragonite        -0.20     -8.45   -8.25  CaCO3
  Arsenolite     -136.23   -139.25   -3.01  As4O6
  Artinite         -7.13      2.98   10.11  MgCO3:Mg(OH)2:3H2O
  As2O5           -30.46    -23.66    6.80  As2O5
  Brucite          -5.00     12.32   17.32  Mg(OH)2
  Ca3(AsO4)2:4H2O  -6.31     15.99   22.30  Ca3(AsO4)2:4H2O
  Calcite           0.00     -8.45   -8.45  CaCO3
  Cd(OH)2          -4.75      9.29   14.04  Cd(OH)2
  Cd(OH)2(am)      -4.81      9.29   14.10  Cd(OH)2
  Cd3(OH)2(SO4)2  -14.51     -7.80    6.71  Cd3(OH)2(SO4)2
  Cd3(OH)4SO4     -12.53     10.03   22.56  Cd3(OH)4SO4
  Cd4(OH)6SO4      -9.08     19.32   28.40  Cd4(OH)6SO4
  CdCl2           -12.45    -13.03   -0.58  CdCl2
  CdCl2:1H2O      -11.37    -13.03   -1.66  CdCl2:1H2O
  CdCl2:2.5H2O    -11.09    -13.03   -1.94  CdCl2:2.5H2O
  Cdmetal(alpha)  -46.95    -33.12   13.83  Cd
  Cdmetal(gamma)  -47.06    -33.12   13.94  Cd
  CdOHCl           -5.54     -1.87    3.67  CdOHCl
  CdSO4            -8.59     -8.54    0.05  CdSO4
  CdSO4:1H2O       -6.95     -8.54   -1.59  CdSO4:1H2O
  CdSO4:2.67H2O    -6.75     -8.54   -1.80  CdSO4:2.67H2O
  CH4(g)         -149.17   -191.30  -42.13  CH4
  Claudetite     -135.95   -139.25   -3.30  As4O6
  CO2(g)           -3.50    -21.66  -18.16  CO2
  Dolomite(disordered)  -1.44    -17.79  -16.34  CaMg(CO3)2
  Dolomite(ordered)  -0.87    -17.79  -16.92  CaMg(CO3)2
  Epsomite         -3.34     -5.51   -2.18  MgSO4:7H2O
  Fe(OH)2         -18.06     -4.49   13.56  Fe(OH)2
  Fe(OH)2.7Cl.3     3.19      0.15   -3.04  Fe(OH)2.7Cl.3
  Fe2(SO4)3       -43.78    -46.49   -2.71  Fe2(SO4)3
  Fe3(OH)8        -17.71      2.51   20.22  Fe3(OH)8
  FeAsO4:2H2O      -8.73     -8.33    0.40  FeAsO4:2H2O
  Ferrihydrite     -0.00      3.50    3.50  Fe(OH)3
  FeS(ppt)       -155.14   -158.04   -2.90  FeS
  Goethite          2.75      3.50    0.75  FeOOH
  Greenockite    -129.67   -144.26  -14.59  CdS
  Greigite       -566.67   -611.70  -45.03  Fe3S4
  Gypsum           -0.00     -4.61   -4.61  CaSO4:2H2O
  H-Jarosite      -14.03    -25.16  -11.13  (H3O)Fe3(SO4)2(OH)6
  H2S(g)         -145.54   -153.55   -8.01  H2S
  Halite           -7.11     -5.53    1.59  NaCl
  Hematite          7.88      7.00   -0.87  Fe2O3
  Huntite          -6.96    -36.48  -29.51  CaMg3(CO3)4
  Hydromagnesite  -17.21    -25.05   -7.85  Mg5(CO3)4(OH)2:4H2O
  K-Jarosite       -6.22    -20.46  -14.25  KFe3(SO4)2(OH)6
  Lepidocrocite     2.13      3.50    1.37  FeOOH
  Lime            -20.30     13.22   33.52  CaO
  Mackinawite    -154.44   -158.04   -3.60  FeS
  Maghemite         0.61      7.00    6.39  Fe2O3
  Magnesioferrite   1.29     19.32   18.03  Fe2MgO4
  Magnesite        -1.80     -9.34   -7.54  MgCO3
  Magnetite        -1.77      2.51    4.28  Fe3O4
  Melanterite     -20.03    -22.33   -2.30  FeSO4:7H2O
  Mg(OH)2(active)  -6.47     12.32   18.79  Mg(OH)2
  Mirabilite       -5.12     -6.57   -1.45  Na2SO4:10H2O
  Monteponite      -6.25      9.29   15.54  CdO
  Na-Jarosite      -8.97    -19.53  -10.56  NaFe3(SO4)2(OH)6
  Natron           -8.82    -10.40   -1.59  Na2CO3:10H2O
  Nesquehonite     -4.78     -9.34   -4.57  MgCO3:3H2O
  O2(g)            -0.68     84.82   85.50  O2
  Orpiment       -467.74   -530.28  -62.54  As2S3
  Otavite          -0.38    -12.38  -12.00  CdCO3
  Periclase        -9.90     12.32   22.22  MgO
  Portlandite     -10.13     13.22   23.35  Ca(OH)2
  Pyrite         -250.47   -269.19  -18.72  FeS2
  Realgar        -189.28   -209.57  -20.29  AsS
  Siderite        -15.98    -26.16  -10.17  FeCO3
  Sulfur         -109.07   -111.14   -2.08  S
  Thenardite       -6.93     -6.57    0.36  Na2SO4
  Thermonatrite   -11.08    -10.40    0.68  Na2CO3:H2O

**For a gas, SI = log10(fugacity). Fugacity = pressure * phi / 1 atm.
  For ideal gases, phi = 1.

------------------
End of simulation.
------------------

------------------------------------
Reading input data for simulation 5.
------------------------------------

	Solution 		4
		pe    	4
		redox		pe
		units		mg/L
		density 	1
		temp     	18
		pH		7	
		Na		100
		Alkalinity	50
		Cl		400
		Fe		300
		water 	1 # kg	
	End		
-------------------------------------------
Beginning of initial solution calculations.
-------------------------------------------

Initial solution 4.	

-----------------------------Solution composition------------------------------

	Elements           Molality       Moles

	Alkalinity        8.201e-04   8.201e-04
	Cl                1.129e-02   1.129e-02
	Fe                5.376e-03   5.376e-03
	Na                4.353e-03   4.353e-03

----------------------------Description of solution----------------------------

                                       pH  =   7.000    
                                       pe  =   4.000    
                        Activity of water  =   1.000
                 Ionic strength (mol/kgw)  =   1.477e-02
                       Mass of water (kg)  =   1.000e+00
                    Total carbon (mol/kg)  =   8.722e-04
                       Total CO2 (mol/kg)  =   8.722e-04
                         Temperature (°C)  =  18.00
                  Electrical balance (eq)  =   2.683e-04
 Percent error, 100*(Cat-|An|)/(Cat+|An|)  =   1.11
                               Iterations  =   8
                                  Total H  = 1.110202e+02
                                  Total O  = 5.551500e+01

----------------------------Distribution of species----------------------------

                                               Log       Log       Log    mole V
   Species          Molality    Activity  Molality  Activity     Gamma   cm³/mol

   H+              1.128e-07   1.000e-07    -6.948    -7.000    -0.052      0.00
   OH-             6.630e-08   5.858e-08    -7.178    -7.232    -0.054     (0)  
   H2O             5.551e+01   9.996e-01     1.744    -0.000     0.000     18.04
C(4)          8.722e-04
   HCO3-           7.045e-04   6.273e-04    -3.152    -3.203    -0.050     (0)  
   H2CO3           1.542e-04   1.542e-04    -3.812    -3.812     0.000     (0)  
   FeHCO3+         1.151e-05   1.027e-05    -4.939    -4.988    -0.049     (0)  
   NaHCO3          1.554e-06   1.554e-06    -5.808    -5.808     0.000     (0)  
   CO3-2           4.135e-07   2.552e-07    -6.383    -6.593    -0.210     (0)  
   NaCO3-          2.508e-08   2.233e-08    -7.601    -7.651    -0.050     (0)  
Cl            1.129e-02
   Cl-             1.129e-02   1.001e-02    -1.947    -2.000    -0.052     (0)  
   FeCl+2          3.563e-13   2.225e-13   -12.448   -12.653    -0.204     (0)  
   FeCl2+          1.399e-14   1.244e-14   -13.854   -13.905    -0.051     (0)  
   FeCl3           1.245e-17   1.245e-17   -16.905   -16.905     0.000     (0)  
Fe(2)         2.651e-03
   Fe+2            2.635e-03   1.499e-03    -2.579    -2.824    -0.245     (0)  
   FeHCO3+         1.151e-05   1.027e-05    -4.939    -4.988    -0.049     (0)  
   FeOH+           3.932e-06   3.496e-06    -5.405    -5.456    -0.051     (0)  
   Fe(OH)2         1.505e-10   1.505e-10    -9.822    -9.822     0.000     (0)  
   Fe(OH)3-        5.045e-12   4.485e-12   -11.297   -11.348    -0.051     (0)  
Fe(3)         2.726e-03
   Fe(OH)2+        2.630e-03   2.342e-03    -2.580    -2.630    -0.050     (0)  
   Fe(OH)3         9.252e-05   9.252e-05    -4.034    -4.034     0.000     (0)  
   Fe(OH)4-        2.665e-06   2.373e-06    -5.574    -5.625    -0.050     (0)  
   FeOH+2          6.383e-08   3.987e-08    -7.195    -7.399    -0.204     (0)  
   Fe+3            2.726e-12   9.203e-13   -11.565   -12.036    -0.472     (0)  
   Fe2(OH)2+4      6.472e-13   6.774e-14   -12.189   -13.169    -0.980     (0)  
   FeCl+2          3.563e-13   2.225e-13   -12.448   -12.653    -0.204     (0)  
   Fe3(OH)4+5      7.244e-14   2.130e-15   -13.140   -14.672    -1.532     (0)  
   FeCl2+          1.399e-14   1.244e-14   -13.854   -13.905    -0.051     (0)  
   FeCl3           1.245e-17   1.245e-17   -16.905   -16.905     0.000     (0)  
H(0)          1.515e-25
   H2              7.577e-26   7.603e-26   -25.120   -25.119     0.001     (0)  
Na            4.353e-03
   Na+             4.352e-03   3.857e-03    -2.361    -2.414    -0.052     (0)  
   NaHCO3          1.554e-06   1.554e-06    -5.808    -5.808     0.000     (0)  
   NaCO3-          2.508e-08   2.233e-08    -7.601    -7.651    -0.050     (0)  
O(0)          0.000e+00
   O2              0.000e+00   0.000e+00   -44.024   -44.022     0.001     (0)  

------------------------------Saturation indices-------------------------------

  Phase               SI** log IAP   log K(291 K,   1 atm)

  CH4(g)          -66.46   -108.59  -42.13  CH4
  CO2(g)           -2.43    -20.59  -18.16  CO2
  Fe(OH)2          -2.39     11.18   13.56  Fe(OH)2
  Fe(OH)2.7Cl.3     9.30      6.26   -3.04  Fe(OH)2.7Cl.3
  Fe3(OH)8          8.88     29.10   20.22  Fe3(OH)8
  Ferrihydrite      5.46      8.96    3.50  Fe(OH)3
  Goethite          8.22      8.96    0.75  FeOOH
  Halite           -6.00     -4.41    1.59  NaCl
  Hematite         18.80     17.93   -0.87  Fe2O3
  Lepidocrocite     7.59      8.96    1.37  FeOOH
  Maghemite        11.54     17.93    6.39  Fe2O3
  Magnetite        24.82     29.10    4.28  Fe3O4
  Natron           -9.83    -11.42   -1.59  Na2CO3:10H2O
  O2(g)           -41.50     44.00   85.50  O2
  Siderite          0.76     -9.42  -10.17  FeCO3
  Thermonatrite   -12.10    -11.42    0.68  Na2CO3:H2O

**For a gas, SI = log10(fugacity). Fugacity = pressure * phi / 1 atm.
  For ideal gases, phi = 1.

------------------
End of simulation.
------------------

------------------------------------
Reading input data for simulation 6.
------------------------------------

	MIX	1	
		3	0.9
		4	0.1
	Save SOLUTION	5	
	END		
-----------------------------------------
Beginning of batch-reaction calculations.
-----------------------------------------

Reaction step 1.

Using mix 1.	

Mixture 1.	

	  9.000e-01 Solution 3	Solution after simulation 4.                           
	  1.000e-01 Solution 4	                                                       

-----------------------------Solution composition------------------------------

	Elements           Molality       Moles

	As                1.205e-05   1.205e-05
	C                 5.180e-04   5.179e-04
	Ca                1.205e-02   1.205e-02
	Cd                1.607e-06   1.606e-06
	Cl                1.639e-03   1.639e-03
	Fe                5.377e-04   5.376e-04
	K                 8.545e-04   8.544e-04
	Mg                1.412e-03   1.412e-03
	Na                7.701e-03   7.701e-03
	S                 1.856e-02   1.856e-02

----------------------------Description of solution----------------------------

                                       pH  =   6.251      Charge balance
                                       pe  =  14.928      Adjusted to redox equilibrium
                        Activity of water  =   0.999
                 Ionic strength (mol/kgw)  =   4.896e-02
                       Mass of water (kg)  =   9.999e-01
                 Total alkalinity (eq/kg)  =   2.545e-04
                       Total CO2 (mol/kg)  =   5.180e-04
                         Temperature (°C)  =  18.00
                  Electrical balance (eq)  =  -2.997e-03
 Percent error, 100*(Cat-|An|)/(Cat+|An|)  =  -5.50
                               Iterations  =  11
                                  Total H  = 1.110041e+02
                                  Total O  = 5.557901e+01

----------------------------Distribution of species----------------------------

                                               Log       Log       Log    mole V
   Species          Molality    Activity  Molality  Activity     Gamma   cm³/mol

   H+              6.812e-07   5.615e-07    -6.167    -6.251    -0.084      0.00
   OH-             1.280e-08   1.043e-08    -7.893    -7.982    -0.089     (0)  
   H2O             5.551e+01   9.993e-01     1.744    -0.000     0.000     18.04
As(3)         7.067e-33
   H3AsO3          7.061e-33   7.061e-33   -32.151   -32.151     0.000     (0)  
   H2AsO3-         6.391e-36   4.944e-36   -35.194   -35.306    -0.112     (0)  
   H4AsO3+         2.540e-39   1.964e-39   -38.595   -38.707    -0.112     (0)  
   HAsO3-2         0.000e+00   0.000e+00   -40.784   -41.230    -0.446     (0)  
   AsO3-3          0.000e+00   0.000e+00   -47.496   -48.500    -1.004     (0)  
As(5)         1.205e-05
   H2AsO4-         8.548e-06   6.611e-06    -5.068    -5.180    -0.112     (0)  
   HAsO4-2         3.504e-06   1.254e-06    -5.455    -5.902    -0.446     (0)  
   H3AsO4          5.955e-10   6.022e-10    -9.225    -9.220     0.005     (0)  
   AsO4-3          6.043e-11   5.989e-12   -10.219   -11.223    -1.004     (0)  
C(4)          5.180e-04
   H2CO3           2.691e-04   2.691e-04    -3.570    -3.570     0.000     (0)  
   HCO3-           2.345e-04   1.950e-04    -3.630    -3.710    -0.080     (0)  
   CaHCO3+         1.239e-05   1.036e-05    -4.907    -4.985    -0.078     (0)  
   MgHCO3+         1.026e-06   8.407e-07    -5.989    -6.075    -0.086     (0)  
   NaHCO3          7.703e-07   7.703e-07    -6.113    -6.113     0.000     (0)  
   CaCO3           6.640e-08   6.640e-08    -7.178    -7.178     0.000     (0)  
   CO3-2           3.061e-08   1.413e-08    -7.514    -7.850    -0.336     (0)  
   MgCO3           4.583e-09   4.583e-09    -8.339    -8.339     0.000     (0)  
   NaCO3-          2.371e-09   1.971e-09    -8.625    -8.705    -0.080     (0)  
   CdHCO3+         2.008e-10   1.553e-10    -9.697    -9.809    -0.112     (0)  
   CdCO3           1.298e-10   1.298e-10    -9.887    -9.887     0.000     (0)  
   Cd(CO3)2-2      3.800e-15   1.360e-15   -14.420   -14.866    -0.446     (0)  
   FeHCO3+         2.696e-16   2.254e-16   -15.569   -15.647    -0.078     (0)  
Ca            1.205e-02
   Ca+2            7.501e-03   3.462e-03    -2.125    -2.461    -0.336     (0)  
   CaSO4           4.539e-03   4.539e-03    -2.343    -2.343     0.000     (0)  
   CaHCO3+         1.239e-05   1.036e-05    -4.907    -4.985    -0.078     (0)  
   CaCO3           6.640e-08   6.640e-08    -7.178    -7.178     0.000     (0)  
   CaOH+           7.952e-10   6.648e-10    -9.100    -9.177    -0.078     (0)  
Cd            1.607e-06
   Cd+2            8.731e-07   4.030e-07    -6.059    -6.395    -0.336     (0)  
   CdSO4           5.323e-07   5.323e-07    -6.274    -6.274     0.000     (0)  
   Cd(SO4)2-2      1.338e-07   4.790e-08    -6.873    -7.320    -0.446     (0)  
   CdCl+           6.656e-08   5.148e-08    -7.177    -7.288    -0.112     (0)  
   CdCl2           2.843e-10   2.843e-10    -9.546    -9.546     0.000     (0)  
   CdHCO3+         2.008e-10   1.553e-10    -9.697    -9.809    -0.112     (0)  
   CdCO3           1.298e-10   1.298e-10    -9.887    -9.887     0.000     (0)  
   CdOH+           4.359e-11   3.372e-11   -10.361   -10.472    -0.112     (0)  
   CdOHCl          3.203e-11   3.203e-11   -10.495   -10.495     0.000     (0)  
   CdCl3-          2.927e-13   2.264e-13   -12.534   -12.645    -0.112     (0)  
   Cd(OH)2         6.487e-15   6.487e-15   -14.188   -14.188     0.000     (0)  
   Cd(CO3)2-2      3.800e-15   1.360e-15   -14.420   -14.866    -0.446     (0)  
   Cd2OH+3         7.499e-16   7.431e-17   -15.125   -16.129    -1.004     (0)  
   Cd(OH)3-        9.183e-21   7.103e-21   -20.037   -20.149    -0.112     (0)  
   Cd(OH)4-2       5.821e-29   2.083e-29   -28.235   -28.681    -0.446     (0)  
   CdHS+           0.000e+00   0.000e+00  -142.257  -142.368    -0.112     (0)  
   Cd(HS)2         0.000e+00   0.000e+00  -279.146  -279.146     0.000     (0)  
   Cd(HS)3-        0.000e+00   0.000e+00  -421.116  -421.227    -0.112     (0)  
   Cd(HS)4-2       0.000e+00   0.000e+00  -562.567  -563.013    -0.446     (0)  
Cl            1.639e-03
   Cl-             1.639e-03   1.351e-03    -2.786    -2.869    -0.084     (0)  
   CdCl+           6.656e-08   5.148e-08    -7.177    -7.288    -0.112     (0)  
   CdCl2           2.843e-10   2.843e-10    -9.546    -9.546     0.000     (0)  
   CdOHCl          3.203e-11   3.203e-11   -10.495   -10.495     0.000     (0)  
   FeCl+2          3.822e-13   1.798e-13   -12.418   -12.745    -0.328     (0)  
   CdCl3-          2.927e-13   2.264e-13   -12.534   -12.645    -0.112     (0)  
   FeCl2+          1.637e-15   1.356e-15   -14.786   -14.868    -0.082     (0)  
   FeCl3           1.831e-19   1.831e-19   -18.737   -18.737     0.000     (0)  
Fe(2)         4.432e-13
   Fe+2            2.955e-13   1.058e-13   -12.529   -12.976    -0.446     (0)  
   FeSO4           1.473e-13   1.473e-13   -12.832   -12.832     0.000     (0)  
   FeHCO3+         2.696e-16   2.254e-16   -15.569   -15.647    -0.078     (0)  
   FeOH+           5.304e-17   4.392e-17   -16.275   -16.357    -0.082     (0)  
   Fe(OH)2         3.367e-22   3.367e-22   -21.473   -21.473     0.000     (0)  
   Fe(OH)3-        2.157e-24   1.786e-24   -23.666   -23.748    -0.082     (0)  
   Fe(HS)2         0.000e+00   0.000e+00  -291.989  -291.989     0.000     (0)  
   Fe(HS)3-        0.000e+00   0.000e+00  -433.822  -433.933    -0.112     (0)  
Fe(3)         5.377e-04
   Fe(OH)2+        5.345e-04   4.444e-04    -3.272    -3.352    -0.080     (0)  
   Fe(OH)3         3.125e-06   3.125e-06    -5.505    -5.505     0.000     (0)  
   FeOH+2          9.033e-08   4.249e-08    -7.044    -7.372    -0.328     (0)  
   Fe(OH)4-        1.716e-08   1.427e-08    -7.765    -7.846    -0.080     (0)  
   FeSO4+          3.590e-10   2.973e-10    -9.445    -9.527    -0.082     (0)  
   Fe(SO4)2-       5.330e-11   4.122e-11   -10.273   -10.385    -0.112     (0)  
   Fe+3            3.136e-11   5.508e-12   -10.504   -11.259    -0.755     (0)  
   Fe2(OH)2+4      4.686e-12   7.692e-14   -11.329   -13.114    -1.785     (0)  
   FeCl+2          3.822e-13   1.798e-13   -12.418   -12.745    -0.328     (0)  
   Fe3(OH)4+5      2.821e-13   4.589e-16   -12.550   -15.338    -2.789     (0)  
   FeCl2+          1.637e-15   1.356e-15   -14.786   -14.868    -0.082     (0)  
   FeCl3           1.831e-19   1.831e-19   -18.737   -18.737     0.000     (0)  
H(0)          0.000e+00
   H2              0.000e+00   0.000e+00   -45.482   -45.477     0.005     (0)  
K             8.545e-04
   K+              8.206e-04   6.764e-04    -3.086    -3.170    -0.084     (0)  
   KSO4-           3.393e-05   2.821e-05    -4.469    -4.550    -0.080     (0)  
Mg            1.412e-03
   Mg+2            9.488e-04   4.380e-04    -3.023    -3.359    -0.336     (0)  
   MgSO4           4.619e-04   4.619e-04    -3.335    -3.335     0.000     (0)  
   MgHCO3+         1.026e-06   8.407e-07    -5.989    -6.075    -0.086     (0)  
   MgCO3           4.583e-09   4.583e-09    -8.339    -8.339     0.000     (0)  
   MgOH+           1.928e-09   1.619e-09    -8.715    -8.791    -0.076     (0)  
Na            7.701e-03
   Na+             7.460e-03   6.149e-03    -2.127    -2.211    -0.084     (0)  
   NaSO4-          2.411e-04   2.005e-04    -3.618    -3.698    -0.080     (0)  
   NaHCO3          7.703e-07   7.703e-07    -6.113    -6.113     0.000     (0)  
   NaCO3-          2.371e-09   1.971e-09    -8.625    -8.705    -0.080     (0)  
O(0)          9.771e-04
   O2              4.885e-04   4.941e-04    -3.311    -3.306     0.005     (0)  
S(-2)         0.000e+00
   CdHS+           0.000e+00   0.000e+00  -142.257  -142.368    -0.112     (0)  
   H2S             0.000e+00   0.000e+00  -143.119  -143.119     0.000     (0)  
   HS-             0.000e+00   0.000e+00  -143.870  -143.982    -0.112     (0)  
   S5-2            0.000e+00   0.000e+00  -146.808  -147.254    -0.446     (0)  
   S6-2            0.000e+00   0.000e+00  -147.166  -147.612    -0.446     (0)  
   S4-2            0.000e+00   0.000e+00  -147.411  -147.857    -0.446     (0)  
   S3-2            0.000e+00   0.000e+00  -148.229  -148.675    -0.446     (0)  
   S2-2            0.000e+00   0.000e+00  -149.263  -149.709    -0.446     (0)  
   S-2             0.000e+00   0.000e+00  -154.911  -155.239    -0.328     (0)  
   Cd(HS)2         0.000e+00   0.000e+00  -279.146  -279.146     0.000     (0)  
   Fe(HS)2         0.000e+00   0.000e+00  -291.989  -291.989     0.000     (0)  
   Cd(HS)3-        0.000e+00   0.000e+00  -421.116  -421.227    -0.112     (0)  
   Fe(HS)3-        0.000e+00   0.000e+00  -433.822  -433.933    -0.112     (0)  
   Cd(HS)4-2       0.000e+00   0.000e+00  -562.567  -563.013    -0.446     (0)  
S(6)          1.856e-02
   SO4-2           1.328e-02   6.131e-03    -1.877    -2.212    -0.336     (0)  
   CaSO4           4.539e-03   4.539e-03    -2.343    -2.343     0.000     (0)  
   MgSO4           4.619e-04   4.619e-04    -3.335    -3.335     0.000     (0)  
   NaSO4-          2.411e-04   2.005e-04    -3.618    -3.698    -0.080     (0)  
   KSO4-           3.393e-05   2.821e-05    -4.469    -4.550    -0.080     (0)  
   CdSO4           5.323e-07   5.323e-07    -6.274    -6.274     0.000     (0)  
   HSO4-           3.299e-07   2.718e-07    -6.482    -6.566    -0.084     (0)  
   Cd(SO4)2-2      1.338e-07   4.790e-08    -6.873    -7.320    -0.446     (0)  
   FeSO4+          3.590e-10   2.973e-10    -9.445    -9.527    -0.082     (0)  
   Fe(SO4)2-       5.330e-11   4.122e-11   -10.273   -10.385    -0.112     (0)  
   FeSO4           1.473e-13   1.473e-13   -12.832   -12.832     0.000     (0)  

------------------------------Saturation indices-------------------------------

  Phase               SI** log IAP   log K(291 K,   1 atm)

  Anhydrite        -0.34     -4.67   -4.33  CaSO4
  Aragonite        -2.06    -10.31   -8.25  CaCO3
  Arsenolite     -125.59   -128.60   -3.01  As4O6
  Artinite        -12.17     -2.07   10.11  MgCO3:Mg(OH)2:3H2O
  As2O5           -25.24    -18.44    6.80  As2O5
  Brucite          -8.18      9.14   17.32  Mg(OH)2
  Ca3(AsO4)2:4H2O -10.62     11.68   22.30  Ca3(AsO4)2:4H2O
  Calcite          -1.86    -10.31   -8.45  CaCO3
  Cd(OH)2          -7.94      6.11   14.04  Cd(OH)2
  Cd(OH)2(am)      -7.99      6.11   14.10  Cd(OH)2
  Cd3(OH)2(SO4)2  -17.82    -11.11    6.71  Cd3(OH)2(SO4)2
  Cd3(OH)4SO4     -18.96      3.60   22.56  Cd3(OH)4SO4
  Cd4(OH)6SO4     -18.69      9.71   28.40  Cd4(OH)6SO4
  CdCl2           -11.55    -12.13   -0.58  CdCl2
  CdCl2:1H2O      -10.47    -12.13   -1.66  CdCl2:1H2O
  CdCl2:2.5H2O    -10.19    -12.13   -1.94  CdCl2:2.5H2O
  Cdmetal(alpha)  -50.08    -36.25   13.83  Cd
  Cdmetal(gamma)  -50.19    -36.25   13.94  Cd
  CdOHCl           -6.68     -3.01    3.67  CdOHCl
  CdSO4            -8.65     -8.61    0.05  CdSO4
  CdSO4:1H2O       -7.01     -8.61   -1.59  CdSO4:1H2O
  CdSO4:2.67H2O    -6.81     -8.61   -1.80  CdSO4:2.67H2O
  CH4(g)         -147.65   -189.78  -42.13  CH4
  Claudetite     -125.30   -128.60   -3.30  As4O6
  CO2(g)           -2.19    -20.35  -18.16  CO2
  Dolomite(disordered)  -5.17    -21.52  -16.34  CaMg(CO3)2
  Dolomite(ordered)  -4.60    -21.52  -16.92  CaMg(CO3)2
  Epsomite         -3.40     -5.57   -2.18  MgSO4:7H2O
  Fe(OH)2         -14.04     -0.47   13.56  Fe(OH)2
  Fe(OH)2.7Cl.3     7.80      4.76   -3.04  Fe(OH)2.7Cl.3
  Fe2(SO4)3       -26.44    -29.16   -2.71  Fe2(SO4)3
  Fe3(OH)8         -5.71     14.51   20.22  Fe3(OH)8
  FeAsO4:2H2O      -2.13     -1.73    0.40  FeAsO4:2H2O
  Ferrihydrite      3.99      7.49    3.50  Fe(OH)3
  FeS(ppt)       -147.80   -150.71   -2.90  FeS
  Goethite          6.75      7.49    0.75  FeOOH
  Greenockite    -129.53   -144.13  -14.59  CdS
  Greigite       -541.38   -586.42  -45.03  Fe3S4
  Gypsum           -0.06     -4.67   -4.61  CaSO4:2H2O
  H-Jarosite        4.18     -6.95  -11.13  (H3O)Fe3(SO4)2(OH)6
  H2S(g)         -142.22   -150.23   -8.01  H2S
  Halite           -6.67     -5.08    1.59  NaCl
  Hematite         15.86     14.99   -0.87  Fe2O3
  Huntite         -14.42    -43.94  -29.51  CaMg3(CO3)4
  Hydromagnesite  -27.85    -35.69   -7.85  Mg5(CO3)4(OH)2:4H2O
  K-Jarosite       10.38     -3.87  -14.25  KFe3(SO4)2(OH)6
  Lepidocrocite     6.12      7.49    1.37  FeOOH
  Lime            -23.48     10.04   33.52  CaO
  Mackinawite    -147.11   -150.71   -3.60  FeS
  Maghemite         8.60     14.99    6.39  Fe2O3
  Magnesioferrite   6.09     24.13   18.03  Fe2MgO4
  Magnesite        -3.66    -11.21   -7.54  MgCO3
  Magnetite        10.23     14.51    4.28  Fe3O4
  Melanterite     -12.89    -15.19   -2.30  FeSO4:7H2O
  Mg(OH)2(active)  -9.65      9.14   18.79  Mg(OH)2
  Mirabilite       -5.19     -6.64   -1.45  Na2SO4:10H2O
  Monteponite      -9.43      6.11   15.54  CdO
  Na-Jarosite       7.65     -2.91  -10.56  NaFe3(SO4)2(OH)6
  Natron          -10.69    -12.28   -1.59  Na2CO3:10H2O
  Nesquehonite     -6.64    -11.21   -4.57  MgCO3:3H2O
  O2(g)            -0.78     84.72   85.50  O2
  Orpiment       -452.45   -515.00  -62.54  As2S3
  Otavite          -2.25    -14.24  -12.00  CdCO3
  Periclase       -13.08      9.14   22.22  MgO
  Portlandite     -13.31     10.04   23.35  Ca(OH)2
  Pyrite         -239.86   -258.58  -18.72  FeS2
  Realgar        -183.28   -203.56  -20.29  AsS
  Siderite        -10.65    -20.83  -10.17  FeCO3
  Sulfur         -105.80   -107.87   -2.08  S
  Thenardite       -7.00     -6.63    0.36  Na2SO4
  Thermonatrite   -12.95    -12.27    0.68  Na2CO3:H2O

**For a gas, SI = log10(fugacity). Fugacity = pressure * phi / 1 atm.
  For ideal gases, phi = 1.

------------------
End of simulation.
------------------

------------------------------------
Reading input data for simulation 7.
------------------------------------

	EQUILIBRIUM_PHASES		2
		Calcite 		0	0
		Ferrihydrite	0	0
		Gypsum		0	0
		CO2(g)		-3.5
		O2(g)			-0.68
	USE Solution 5
	SAVE Equilibrium_Phases 2
	SAVE solution 6
	End		
-----------------------------------------
Beginning of batch-reaction calculations.
-----------------------------------------

Reaction step 1.

Using solution 5.	Solution after simulation 6.
Using pure phase assemblage 2.	

-------------------------------Phase assemblage--------------------------------

                                                      Moles in assemblage
Phase               SI  log IAP  log K(T, P)   Initial       Final       Delta

CO2(g)           -3.50   -21.66    -18.16    1.000e+01   1.000e+01   5.048e-04
Calcite          -8.01   -16.46     -8.45    0.000e+00           0   0.000e+00
Ferrihydrite      0.00     3.50      3.50    0.000e+00   5.219e-04   5.219e-04
Gypsum           -0.06    -4.67     -4.61    0.000e+00           0   0.000e+00
O2(g)            -0.68    84.82     85.50    1.000e+01   1.000e+01  -1.285e-04

-----------------------------Solution composition------------------------------

	Elements           Molality       Moles

	As                1.205e-05   1.205e-05
	C                 1.313e-05   1.313e-05
	Ca                1.205e-02   1.205e-02
	Cd                1.607e-06   1.606e-06
	Cl                1.639e-03   1.639e-03
	Fe                1.574e-05   1.574e-05
	K                 8.545e-04   8.544e-04
	Mg                1.412e-03   1.412e-03
	Na                7.701e-03   7.701e-03
	S                 1.856e-02   1.856e-02

----------------------------Description of solution----------------------------

                                       pH  =   3.831      Charge balance
                                       pe  =  17.373      Adjusted to redox equilibrium
                        Activity of water  =   0.999
                 Ionic strength (mol/kgw)  =   4.857e-02
                       Mass of water (kg)  =   9.999e-01
                 Total alkalinity (eq/kg)  =  -2.674e-04
                       Total CO2 (mol/kg)  =   1.313e-05
                         Temperature (°C)  =  18.00
                  Electrical balance (eq)  =  -2.997e-03
 Percent error, 100*(Cat-|An|)/(Cat+|An|)  =  -5.57
                               Iterations  =   9
                                  Total H  = 1.110026e+02
                                  Total O  = 5.557669e+01

----------------------------Distribution of species----------------------------

                                               Log       Log       Log    mole V
   Species          Molality    Activity  Molality  Activity     Gamma   cm³/mol

   H+              1.788e-04   1.475e-04    -3.748    -3.831    -0.084      0.00
   OH-             4.871e-11   3.971e-11   -10.312   -10.401    -0.089     (0)  
   H2O             5.551e+01   9.994e-01     1.744    -0.000     0.000     18.04
As(3)         2.284e-30
   H3AsO3          2.284e-30   2.284e-30   -29.641   -29.641     0.000     (0)  
   H4AsO3+         2.155e-34   1.668e-34   -33.667   -33.778    -0.111     (0)  
   H2AsO3-         7.863e-36   6.088e-36   -35.104   -35.216    -0.111     (0)  
   HAsO3-2         0.000e+00   0.000e+00   -43.115   -43.559    -0.444     (0)  
   AsO3-3          0.000e+00   0.000e+00   -52.248   -53.248    -1.000     (0)  
As(5)         1.205e-05
   H2AsO4-         1.182e-05   9.150e-06    -4.927    -5.039    -0.111     (0)  
   H3AsO4          2.164e-07   2.189e-07    -6.665    -6.660     0.005     (0)  
   HAsO4-2         1.838e-08   6.608e-09    -7.736    -8.180    -0.444     (0)  
   AsO4-3          1.201e-15   1.202e-16   -14.920   -15.920    -1.000     (0)  
C(4)          1.313e-05
   H2CO3           1.308e-05   1.308e-05    -4.883    -4.883     0.000     (0)  
   HCO3-           4.339e-08   3.609e-08    -7.363    -7.443    -0.080     (0)  
   CaHCO3+         2.301e-09   1.924e-09    -8.638    -8.716    -0.078     (0)  
   MgHCO3+         1.905e-10   1.562e-10    -9.720    -9.806    -0.086     (0)  
   NaHCO3          1.427e-10   1.427e-10    -9.846    -9.846     0.000     (0)  
   CaCO3           4.698e-14   4.698e-14   -13.328   -13.328     0.000     (0)  
   CdHCO3+         3.727e-14   2.886e-14   -13.429   -13.540    -0.111     (0)  
   CO3-2           2.153e-14   9.959e-15   -13.667   -14.002    -0.335     (0)  
   MgCO3           3.241e-15   3.241e-15   -14.489   -14.489     0.000     (0)  
   NaCO3-          1.671e-15   1.390e-15   -14.777   -14.857    -0.080     (0)  
   CdCO3           9.184e-17   9.184e-17   -16.037   -16.037     0.000     (0)  
   FeHCO3+         3.305e-19   2.764e-19   -18.481   -18.558    -0.078     (0)  
   Cd(CO3)2-2      1.886e-27   6.781e-28   -26.724   -27.169    -0.444     (0)  
Ca            1.205e-02
   Ca+2            7.514e-03   3.476e-03    -2.124    -2.459    -0.335     (0)  
   CaSO4           4.539e-03   4.539e-03    -2.343    -2.343     0.000     (0)  
   CaHCO3+         2.301e-09   1.924e-09    -8.638    -8.716    -0.078     (0)  
   CaOH+           3.038e-12   2.542e-12   -11.517   -11.595    -0.078     (0)  
   CaCO3           4.698e-14   4.698e-14   -13.328   -13.328     0.000     (0)  
Cd            1.607e-06
   Cd+2            8.745e-07   4.046e-07    -6.058    -6.393    -0.335     (0)  
   CdSO4           5.322e-07   5.322e-07    -6.274    -6.274     0.000     (0)  
   Cd(SO4)2-2      1.327e-07   4.769e-08    -6.877    -7.322    -0.444     (0)  
   CdCl+           6.679e-08   5.171e-08    -7.175    -7.286    -0.111     (0)  
   CdCl2           2.857e-10   2.857e-10    -9.544    -9.544     0.000     (0)  
   CdCl3-          2.940e-13   2.277e-13   -12.532   -12.643    -0.111     (0)  
   CdOH+           1.665e-13   1.289e-13   -12.779   -12.890    -0.111     (0)  
   CdOHCl          1.225e-13   1.225e-13   -12.912   -12.912     0.000     (0)  
   CdHCO3+         3.727e-14   2.886e-14   -13.429   -13.540    -0.111     (0)  
   CdCO3           9.184e-17   9.184e-17   -16.037   -16.037     0.000     (0)  
   Cd2OH+3         2.851e-18   2.852e-19   -17.545   -18.545    -1.000     (0)  
   Cd(OH)2         9.442e-20   9.442e-20   -19.025   -19.025     0.000     (0)  
   Cd(CO3)2-2      1.886e-27   6.781e-28   -26.724   -27.169    -0.444     (0)  
   Cd(OH)3-        5.084e-28   3.936e-28   -27.294   -27.405    -0.111     (0)  
   Cd(OH)4-2       1.223e-38   4.397e-39   -37.913   -38.357    -0.444     (0)  
   CdHS+           0.000e+00   0.000e+00  -140.041  -140.152    -0.111     (0)  
   Cd(HS)2         0.000e+00   0.000e+00  -274.714  -274.714     0.000     (0)  
   Cd(HS)3-        0.000e+00   0.000e+00  -414.470  -414.581    -0.111     (0)  
   Cd(HS)4-2       0.000e+00   0.000e+00  -553.707  -554.152    -0.444     (0)  
Cl            1.639e-03
   Cl-             1.639e-03   1.351e-03    -2.786    -2.869    -0.084     (0)  
   CdCl+           6.679e-08   5.171e-08    -7.175    -7.286    -0.111     (0)  
   FeCl+2          7.038e-10   3.318e-10    -9.153    -9.479    -0.327     (0)  
   CdCl2           2.857e-10   2.857e-10    -9.544    -9.544     0.000     (0)  
   FeCl2+          3.021e-12   2.504e-12   -11.520   -11.601    -0.082     (0)  
   CdCl3-          2.940e-13   2.277e-13   -12.532   -12.643    -0.111     (0)  
   CdOHCl          1.225e-13   1.225e-13   -12.912   -12.912     0.000     (0)  
   FeCl3           3.384e-16   3.384e-16   -15.471   -15.471     0.000     (0)  
Fe(2)         2.922e-12
   Fe+2            1.950e-12   7.010e-13   -11.710   -12.154    -0.444     (0)  
   FeSO4           9.721e-13   9.721e-13   -12.012   -12.012     0.000     (0)  
   FeOH+           1.337e-18   1.108e-18   -17.874   -17.955    -0.082     (0)  
   FeHCO3+         3.305e-19   2.764e-19   -18.481   -18.558    -0.078     (0)  
   Fe(OH)2         3.235e-26   3.235e-26   -25.490   -25.490     0.000     (0)  
   Fe(OH)3-        7.886e-31   6.535e-31   -30.103   -30.185    -0.082     (0)  
   Fe(HS)2         0.000e+00   0.000e+00  -286.738  -286.738     0.000     (0)  
   Fe(HS)3-        0.000e+00   0.000e+00  -426.356  -426.467    -0.111     (0)  
Fe(3)         1.574e-05
   Fe(OH)2+        1.429e-05   1.189e-05    -4.845    -4.925    -0.080     (0)  
   FeSO4+          6.592e-07   5.462e-07    -6.181    -6.263    -0.082     (0)  
   FeOH+2          6.331e-07   2.985e-07    -6.199    -6.525    -0.327     (0)  
   Fe(SO4)2-       9.741e-08   7.543e-08    -7.011    -7.122    -0.111     (0)  
   Fe+3            5.757e-08   1.016e-08    -7.240    -7.993    -0.753     (0)  
   FeCl+2          7.038e-10   3.318e-10    -9.153    -9.479    -0.327     (0)  
   Fe(OH)3         3.183e-10   3.183e-10    -9.497    -9.497     0.000     (0)  
   Fe2(OH)2+4      2.274e-10   3.796e-12    -9.643   -11.421    -1.778     (0)  
   FeCl2+          3.021e-12   2.504e-12   -11.520   -11.601    -0.082     (0)  
   Fe3(OH)4+5      3.628e-13   6.057e-16   -12.440   -15.218    -2.777     (0)  
   Fe(OH)4-        6.653e-15   5.534e-15   -14.177   -14.257    -0.080     (0)  
   FeCl3           3.384e-16   3.384e-16   -15.471   -15.471     0.000     (0)  
H(0)          0.000e+00
   H2              0.000e+00   0.000e+00   -45.533   -45.528     0.005     (0)  
K             8.545e-04
   K+              8.207e-04   6.768e-04    -3.086    -3.170    -0.084     (0)  
   KSO4-           3.380e-05   2.811e-05    -4.471    -4.551    -0.080     (0)  
Mg            1.412e-03
   Mg+2            9.501e-04   4.396e-04    -3.022    -3.357    -0.335     (0)  
   MgSO4           4.616e-04   4.616e-04    -3.336    -3.336     0.000     (0)  
   MgHCO3+         1.905e-10   1.562e-10    -9.720    -9.806    -0.086     (0)  
   MgOH+           7.363e-12   6.186e-12   -11.133   -11.209    -0.076     (0)  
   MgCO3           3.241e-15   3.241e-15   -14.489   -14.489     0.000     (0)  
Na            7.701e-03
   Na+             7.461e-03   6.153e-03    -2.127    -2.211    -0.084     (0)  
   NaSO4-          2.402e-04   1.998e-04    -3.619    -3.699    -0.080     (0)  
   NaHCO3          1.427e-10   1.427e-10    -9.846    -9.846     0.000     (0)  
   NaCO3-          1.671e-15   1.390e-15   -14.777   -14.857    -0.080     (0)  
[...]
  Thermonatrite   -19.10    -18.42    0.68  Na2CO3:H2O

**For a gas, SI = log10(fugacity). Fugacity = pressure * phi / 1 atm.
  For ideal gases, phi = 1.

------------------
End of simulation.
------------------

------------------------------------
Reading input data for simulation 8.
------------------------------------

	SURFACE		2
		    Hfo_sOH Ferrihydrite         equilibrium_phase 0.005 600	
		    Hfo_wOH Ferrihydrite	   equilibrium_phase 0.2
		    donnan 	1.00E-08
	USE EQUILIBRIUM_PHASES 2	
	USE Surface		2
	USE Solution	6
	SAVE Solution 	7
	END		
-----------------------------------------
Beginning of batch-reaction calculations.
-----------------------------------------

Reaction step 1.

Using solution 6.	Solution after simulation 7.
Using surface 2.	
Using pure phase assemblage 2.	Pure-phase assemblage after simulation 7.

-------------------------------Phase assemblage--------------------------------

                                                      Moles in assemblage
Phase               SI  log IAP  log K(T, P)   Initial       Final       Delta

CO2(g)           -3.50   -21.66    -18.16    1.000e+01   1.000e+01  -2.743e-08
Calcite          -7.61   -16.06     -8.45    0.000e+00           0   0.000e+00
Ferrihydrite     -0.00     3.50      3.50    5.219e-04   5.282e-04   6.326e-06
Gypsum           -0.06    -4.67     -4.61    0.000e+00           0   0.000e+00
O2(g)            -0.68    84.82     85.50    1.000e+01   1.000e+01  -1.500e-08

------------------------------Surface composition------------------------------

Diffuse Double Layer Surface-Complexation Model

Hfo           
	 -1.012e-17  Surface + diffuse layer charge, eq
	  9.818e-08  Surface charge, eq
	  2.989e-02  sigma, C/m²
	  4.943e-02  psi, V
	 -1.970e+00  -F*psi/RT
	  1.394e-01  exp(-F*psi/RT)
	  6.000e+02  specific area, m²/mol Ferrihydrite
	  3.169e-01  m² for   5.282e-04 moles of Ferrihydrite

	Water in diffuse layer: 3.169e-06 kg, 100.0% of total DDL-water.

	Total moles in diffuse layer (excluding water), Donnan calculation.
	Donnan Layer potential, psi_DL =  6.656e-03 V.
	Boltzmann factor, exp(-psi_DL * F / RT) = 7.670e-01 (= c_DL / c_free if z is +1).

	Element       	     Moles
	As            	  2.3968e-11
	C             	  4.1760e-11
	Ca            	  2.8392e-08
	Cd            	  4.1946e-12
	Cl            	  6.7716e-09
	Fe            	  2.2760e-11
	H             	  6.7115e-10
	K             	  2.1345e-09
	Mg            	  3.2342e-09
	Na            	  1.9129e-08
	O             	  3.5704e-07
	S             	  8.8217e-08

Hfo_s         
	  2.641e-06  moles	[0.005 mol/(mol Ferrihydrite)]
	                                   Mole                     Log
	Species               Moles    Fraction    Molality    Molality

	Hfo_sOH2+         1.241e-06       0.470   1.241e-06      -5.906
	Hfo_sSO4-         1.204e-06       0.456   1.204e-06      -5.919
	Hfo_sH2AsO4       1.340e-07       0.051   1.340e-07      -6.873
	Hfo_sOHCa+2       3.114e-08       0.012   3.114e-08      -7.507
	Hfo_sHAsO4-       1.647e-08       0.006   1.647e-08      -7.783
	Hfo_sOHSO4-2      9.551e-09       0.004   9.552e-09      -8.020
	Hfo_sOH           4.935e-09       0.002   4.936e-09      -8.307
	Hfo_sOHAsO4-3     1.163e-11       0.000   1.163e-11     -10.934
	Hfo_sOCd+         8.889e-12       0.000   8.890e-12     -11.051
	Hfo_sO-           4.497e-13       0.000   4.497e-13     -12.347
	Hfo_sH2AsO3       8.819e-34       0.000   8.820e-34     -33.055

Hfo_w         
	  1.056e-04  moles	[0.2 mol/(mol Ferrihydrite)]
	                                   Mole                     Log
	Species               Moles    Fraction    Molality    Molality

	Hfo_wOH2+         5.022e-05       0.475   5.023e-05      -4.299
	Hfo_wSO4-         4.875e-05       0.461   4.875e-05      -4.312
	Hfo_wH2AsO4       5.423e-06       0.051   5.423e-06      -5.266
	Hfo_wHAsO4-       6.665e-07       0.006   6.666e-07      -6.176
	Hfo_wOHSO4-2      3.866e-07       0.004   3.866e-07      -6.413
	Hfo_wOH           1.998e-07       0.002   1.998e-07      -6.699
	Hfo_wOHAsO4-3     4.707e-10       0.000   4.707e-10      -9.327
	Hfo_wO-           1.820e-11       0.000   1.820e-11     -10.740
	Hfo_wOMg+         3.326e-12       0.000   3.327e-12     -11.478
	Hfo_wOCa+         1.479e-12       0.000   1.480e-12     -11.830
	Hfo_wOCd+         1.535e-13       0.000   1.535e-13     -12.814
	Hfo_wH2AsO3       3.570e-32       0.000   3.570e-32     -31.447

-----------------------------Solution composition------------------------------

	Elements           Molality       Moles

	As                5.811e-06   5.811e-06
	C                 1.316e-05   1.315e-05
	Ca                1.205e-02   1.205e-02
	Cd                1.607e-06   1.606e-06
	Cl                1.639e-03   1.639e-03
	Fe                9.410e-06   9.409e-06
	K                 8.545e-04   8.544e-04
	Mg                1.412e-03   1.412e-03
	Na                7.701e-03   7.701e-03
	S                 1.851e-02   1.851e-02

----------------------------Description of solution----------------------------

                                       pH  =   4.034      Charge balance
                                       pe  =  17.171      Adjusted to redox equilibrium
                        Activity of water  =   0.999
                 Ionic strength (mol/kgw)  =   4.848e-02
                       Mass of water (kg)  =   9.999e-01
                 Total alkalinity (eq/kg)  =  -1.668e-04
                       Total CO2 (mol/kg)  =   1.316e-05
                         Temperature (°C)  =  18.00
                  Electrical balance (eq)  =  -2.997e-03
 Percent error, 100*(Cat-|An|)/(Cat+|An|)  =  -5.58
                               Iterations  =   1
                                  Total H  = 1.110025e+02
                                  Total O  = 5.557650e+01

----------------------------Distribution of species----------------------------

                                               Log       Log       Log    mole V
   Species          Molality    Activity  Molality  Activity     Gamma   cm³/mol

   H+              1.121e-04   9.249e-05    -3.950    -4.034    -0.084      0.00
   OH-             7.766e-11   6.332e-11   -10.110   -10.198    -0.089     (0)  
   H2O             5.551e+01   9.994e-01     1.744    -0.000     0.000     18.04
As(3)         6.948e-31
   H3AsO3          6.948e-31   6.948e-31   -30.158   -30.158     0.000     (0)  
   H4AsO3+         4.111e-35   3.184e-35   -34.386   -34.497    -0.111     (0)  
   H2AsO3-         3.813e-36   2.953e-36   -35.419   -35.530    -0.111     (0)  
   HAsO3-2         0.000e+00   0.000e+00   -43.227   -43.671    -0.444     (0)  
   AsO3-3          0.000e+00   0.000e+00   -52.158   -53.157    -0.999     (0)  
As(5)         5.811e-06
   H2AsO4-         5.731e-06   4.439e-06    -5.242    -5.353    -0.111     (0)  
   H3AsO4          6.585e-08   6.659e-08    -7.181    -7.177     0.005     (0)  
   HAsO4-2         1.421e-08   5.111e-09    -7.848    -8.291    -0.444     (0)  
   AsO4-3          1.478e-15   1.482e-16   -14.830   -15.829    -0.999     (0)  
C(4)          1.316e-05
   H2CO3           1.308e-05   1.308e-05    -4.883    -4.883     0.000     (0)  
   HCO3-           6.917e-08   5.755e-08    -7.160    -7.240    -0.080     (0)  
   CaHCO3+         3.670e-09   3.070e-09    -8.435    -8.513    -0.077     (0)  
   MgHCO3+         3.038e-10   2.491e-10    -9.517    -9.604    -0.086     (0)  
   NaHCO3          2.275e-10   2.275e-10    -9.643    -9.643     0.000     (0)  
   CaCO3           1.195e-13   1.195e-13   -12.923   -12.923     0.000     (0)  
   CdHCO3+         5.945e-14   4.604e-14   -13.226   -13.337    -0.111     (0)  
   CO3-2           5.470e-14   2.532e-14   -13.262   -13.597    -0.335     (0)  
   MgCO3           8.244e-15   8.244e-15   -14.084   -14.084     0.000     (0)  
   NaCO3-          4.248e-15   3.535e-15   -14.372   -14.452    -0.080     (0)  
   CdCO3           2.337e-16   2.337e-16   -15.631   -15.631     0.000     (0)  
   FeHCO3+         2.072e-19   1.734e-19   -18.684   -18.761    -0.077     (0)  
   Cd(CO3)2-2      1.219e-26   4.385e-27   -25.914   -26.358    -0.444     (0)  
Ca            1.205e-02
   Ca+2            7.515e-03   3.478e-03    -2.124    -2.459    -0.335     (0)  
   CaSO4           4.538e-03   4.538e-03    -2.343    -2.343     0.000     (0)  
   CaHCO3+         3.670e-09   3.070e-09    -8.435    -8.513    -0.077     (0)  
   CaOH+           4.847e-12   4.055e-12   -11.315   -11.392    -0.077     (0)  
   CaCO3           1.195e-13   1.195e-13   -12.923   -12.923     0.000     (0)  
Cd            1.607e-06
   Cd+2            8.747e-07   4.049e-07    -6.058    -6.393    -0.335     (0)  
   CdSO4           5.322e-07   5.322e-07    -6.274    -6.274     0.000     (0)  
   Cd(SO4)2-2      1.325e-07   4.765e-08    -6.878    -7.322    -0.444     (0)  
   CdCl+           6.683e-08   5.176e-08    -7.175    -7.286    -0.111     (0)  
   CdCl2           2.860e-10   2.860e-10    -9.544    -9.544     0.000     (0)  
   CdCl3-          2.943e-13   2.279e-13   -12.531   -12.642    -0.111     (0)  
   CdOH+           2.655e-13   2.056e-13   -12.576   -12.687    -0.111     (0)  
   CdOHCl          1.955e-13   1.955e-13   -12.709   -12.709     0.000     (0)  
   CdHCO3+         5.945e-14   4.604e-14   -13.226   -13.337    -0.111     (0)  
   CdCO3           2.337e-16   2.337e-16   -15.631   -15.631     0.000     (0)  
   Cd2OH+3         4.543e-18   4.554e-19   -17.343   -18.342    -0.999     (0)  
   Cd(OH)2         2.402e-19   2.402e-19   -18.619   -18.619     0.000     (0)  
   Cd(CO3)2-2      1.219e-26   4.385e-27   -25.914   -26.358    -0.444     (0)  
   Cd(OH)3-        2.062e-27   1.597e-27   -26.686   -26.797    -0.111     (0)  
   Cd(OH)4-2       7.904e-38   2.843e-38   -37.102   -37.546    -0.444     (0)  
   CdHS+           0.000e+00   0.000e+00  -140.243  -140.354    -0.111     (0)  
   Cd(HS)2         0.000e+00   0.000e+00  -275.120  -275.120     0.000     (0)  
   Cd(HS)3-        0.000e+00   0.000e+00  -415.079  -415.190    -0.111     (0)  
   Cd(HS)4-2       0.000e+00   0.000e+00  -554.519  -554.963    -0.444     (0)  
Cl            1.639e-03
   Cl-             1.639e-03   1.352e-03    -2.786    -2.869    -0.084     (0)  
   CdCl+           6.683e-08   5.176e-08    -7.175    -7.286    -0.111     (0)  
   CdCl2           2.860e-10   2.860e-10    -9.544    -9.544     0.000     (0)  
   FeCl+2          1.736e-10   8.187e-11    -9.761   -10.087    -0.326     (0)  
   FeCl2+          7.455e-13   6.178e-13   -12.128   -12.209    -0.082     (0)  
   CdCl3-          2.943e-13   2.279e-13   -12.531   -12.642    -0.111     (0)  
   CdOHCl          1.955e-13   1.955e-13   -12.709   -12.709     0.000     (0)  
   FeCl3           8.350e-17   8.350e-17   -16.078   -16.078     0.000     (0)  
Fe(2)         1.148e-12
   Fe+2            7.664e-13   2.757e-13   -12.116   -12.560    -0.444     (0)  
   FeSO4           3.821e-13   3.821e-13   -12.418   -12.418     0.000     (0)  
   FeOH+           8.387e-19   6.951e-19   -18.076   -18.158    -0.082     (0)  
   FeHCO3+         2.072e-19   1.734e-19   -18.684   -18.761    -0.077     (0)  
   Fe(OH)2         3.235e-26   3.235e-26   -25.490   -25.490     0.000     (0)  
   Fe(OH)3-        1.257e-30   1.042e-30   -29.901   -29.982    -0.082     (0)  
   Fe(HS)2         0.000e+00   0.000e+00  -287.549  -287.549     0.000     (0)  
   Fe(HS)3-        0.000e+00   0.000e+00  -427.370  -427.481    -0.111     (0)  
Fe(3)         9.410e-06
   Fe(OH)2+        8.960e-06   7.455e-06    -5.048    -5.128    -0.080     (0)  
   FeOH+2          2.489e-07   1.174e-07    -6.604    -6.930    -0.326     (0)  
   FeSO4+          1.625e-07   1.347e-07    -6.789    -6.871    -0.082     (0)  
   Fe(SO4)2-       2.399e-08   1.858e-08    -7.620    -7.731    -0.111     (0)  
   Fe+3            1.419e-08   2.507e-09    -7.848    -8.601    -0.753     (0)  
   Fe(OH)3         3.183e-10   3.183e-10    -9.497    -9.497     0.000     (0)  
   FeCl+2          1.736e-10   8.187e-11    -9.761   -10.087    -0.326     (0)  
   Fe2(OH)2+4      3.506e-11   5.873e-13   -10.455   -12.231    -1.776     (0)  
   FeCl2+          7.455e-13   6.178e-13   -12.128   -12.209    -0.082     (0)  
   Fe3(OH)4+5      3.500e-14   5.878e-17   -13.456   -16.231    -2.775     (0)  
   Fe(OH)4-        1.061e-14   8.824e-15   -13.974   -14.054    -0.080     (0)  
   FeCl3           8.350e-17   8.350e-17   -16.078   -16.078     0.000     (0)  
H(0)          0.000e+00
   H2              0.000e+00   0.000e+00   -45.533   -45.528     0.005     (0)  
K             8.545e-04
   K+              8.207e-04   6.769e-04    -3.086    -3.169    -0.084     (0)  
   KSO4-           3.377e-05   2.810e-05    -4.471    -4.551    -0.080     (0)  
Mg            1.412e-03
   Mg+2            9.502e-04   4.398e-04    -3.022    -3.357    -0.335     (0)  
   MgSO4           4.615e-04   4.615e-04    -3.336    -3.336     0.000     (0)  
   MgHCO3+         3.038e-10   2.491e-10    -9.517    -9.604    -0.086     (0)  
   MgOH+           1.175e-11   9.869e-12   -10.930   -11.006    -0.076     (0)  
   MgCO3           8.244e-15   8.244e-15   -14.084   -14.084     0.000     (0)  
Na            7.701e-03
   Na+             7.461e-03   6.154e-03    -2.127    -2.211    -0.084     (0)  
   NaSO4-          2.400e-04   1.997e-04    -3.620    -3.700    -0.080     (0)  
   NaHCO3          2.275e-10   2.275e-10    -9.643    -9.643     0.000     (0)  
   NaCO3-          4.248e-15   3.535e-15   -14.372   -14.452    -0.080     (0)  
O(0)          1.234e-03
   O2              6.170e-04   6.240e-04    -3.210    -3.205     0.005     (0)  
S(-2)         0.000e+00
   H2S             0.000e+00   0.000e+00  -138.891  -138.891     0.000     (0)  
   CdHS+           0.000e+00   0.000e+00  -140.243  -140.354    -0.111     (0)  
   HS-             0.000e+00   0.000e+00  -141.859  -141.970    -0.111     (0)  
   S5-2            0.000e+00   0.000e+00  -147.015  -147.459    -0.444     (0)  
   S6-2            0.000e+00   0.000e+00  -147.373  -147.817    -0.444     (0)  
   S4-2            0.000e+00   0.000e+00  -147.618  -148.062    -0.444     (0)  
   S3-2            0.000e+00   0.000e+00  -148.436  -148.880    -0.444     (0)  
   S2-2            0.000e+00   0.000e+00  -149.470  -149.914    -0.444     (0)  
   S-2             0.000e+00   0.000e+00  -155.117  -155.444    -0.326     (0)  
   Cd(HS)2         0.000e+00   0.000e+00  -275.120  -275.120     0.000     (0)  
   Fe(HS)2         0.000e+00   0.000e+00  -287.549  -287.549     0.000     (0)  
   Cd(HS)3-        0.000e+00   0.000e+00  -415.079  -415.190    -0.111     (0)  
   Fe(HS)3-        0.000e+00   0.000e+00  -427.370  -427.481    -0.111     (0)  
   Cd(HS)4-2       0.000e+00   0.000e+00  -554.519  -554.963    -0.444     (0)  
S(6)          1.851e-02
   SO4-2           1.318e-02   6.101e-03    -1.880    -2.215    -0.335     (0)  
   CaSO4           4.538e-03   4.538e-03    -2.343    -2.343     0.000     (0)  
   MgSO4           4.615e-04   4.615e-04    -3.336    -3.336     0.000     (0)  
   NaSO4-          2.400e-04   1.997e-04    -3.620    -3.700    -0.080     (0)  
   HSO4-           5.403e-05   4.455e-05    -4.267    -4.351    -0.084     (0)  
   KSO4-           3.377e-05   2.810e-05    -4.471    -4.551    -0.080     (0)  
   CdSO4           5.322e-07   5.322e-07    -6.274    -6.274     0.000     (0)  
   FeSO4+          1.625e-07   1.347e-07    -6.789    -6.871    -0.082     (0)  
   Cd(SO4)2-2      1.325e-07   4.765e-08    -6.878    -7.322    -0.444     (0)  
   Fe(SO4)2-       2.399e-08   1.858e-08    -7.620    -7.731    -0.111     (0)  
   FeSO4           3.821e-13   3.821e-13   -12.418   -12.418     0.000     (0)  

------------------------------Saturation indices-------------------------------

  Phase               SI** log IAP   log K(291 K,   1 atm)

  Anhydrite        -0.34     -4.67   -4.33  CaSO4
  Aragonite        -7.81    -16.06   -8.25  CaCO3
  Arsenolite     -117.62   -120.63   -3.01  As4O6
  Artinite        -22.35    -12.24   10.11  MgCO3:Mg(OH)2:3H2O
  As2O5           -21.15    -14.35    6.80  As2O5
  Brucite         -12.61      4.71   17.32  Mg(OH)2
  Ca3(AsO4)2:4H2O -19.83      2.47   22.30  Ca3(AsO4)2:4H2O
  Calcite          -7.61    -16.06   -8.45  CaCO3
  Cd(OH)2         -12.37      1.67   14.04  Cd(OH)2
  Cd(OH)2(am)     -12.42      1.67   14.10  Cd(OH)2
  Cd3(OH)2(SO4)2  -22.25    -15.54    6.71  Cd3(OH)2(SO4)2
  Cd3(OH)4SO4     -27.82     -5.26   22.56  Cd3(OH)4SO4
  Cd4(OH)6SO4     -31.98     -3.58   28.40  Cd4(OH)6SO4
  CdCl2           -11.55    -12.13   -0.58  CdCl2
  CdCl2:1H2O      -10.47    -12.13   -1.66  CdCl2:1H2O
  CdCl2:2.5H2O    -10.19    -12.13   -1.94  CdCl2:2.5H2O
  Cdmetal(alpha)  -54.57    -40.73   13.83  Cd
  Cdmetal(gamma)  -54.67    -40.73   13.94  Cd
  CdOHCl           -8.90     -5.23    3.67  CdOHCl
  CdSO4            -8.65     -8.61    0.05  CdSO4
  CdSO4:1H2O       -7.01     -8.61   -1.59  CdSO4:1H2O
  CdSO4:2.67H2O    -6.81     -8.61   -1.80  CdSO4:2.67H2O
  CH4(g)         -149.17   -191.30  -42.13  CH4
  Claudetite     -117.33   -120.63   -3.30  As4O6
  CO2(g)           -3.50    -21.66  -18.16  CO2
  Dolomite(disordered) -16.66    -33.01  -16.34  CaMg(CO3)2
  Dolomite(ordered) -16.08    -33.01  -16.92  CaMg(CO3)2
  Epsomite         -3.40     -5.57   -2.18  MgSO4:7H2O
  Fe(OH)2         -18.06     -4.49   13.56  Fe(OH)2
  Fe(OH)2.7Cl.3     4.47      1.43   -3.04  Fe(OH)2.7Cl.3
  Fe2(SO4)3       -21.13    -23.85   -2.71  Fe2(SO4)3
  Fe3(OH)8        -17.71      2.51   20.22  Fe3(OH)8
  FeAsO4:2H2O      -4.08     -3.68    0.40  FeAsO4:2H2O
  Ferrihydrite     -0.00      3.50    3.50  Fe(OH)3
  FeS(ppt)       -147.59   -150.50   -2.90  FeS
  Goethite          2.75      3.50    0.75  FeOOH
  Greenockite    -129.74   -144.33  -14.59  CdS
  Greigite       -536.47   -581.50  -45.03  Fe3S4
  Gypsum           -0.06     -4.67   -4.61  CaSO4:2H2O
  H-Jarosite        1.06    -10.06  -11.13  (H3O)Fe3(SO4)2(OH)6
  H2S(g)         -137.99   -146.00   -8.01  H2S
  Halite           -6.67     -5.08    1.59  NaCl
  Hematite          7.88      7.00   -0.87  Fe2O3
  Huntite         -37.40    -66.92  -29.51  CaMg3(CO3)4
  Hydromagnesite  -55.26    -63.10   -7.85  Mg5(CO3)4(OH)2:4H2O
  K-Jarosite        5.05     -9.20  -14.25  KFe3(SO4)2(OH)6
  Lepidocrocite     2.13      3.50    1.37  FeOOH
  Lime            -27.91      5.61   33.52  CaO
  Mackinawite    -146.90   -150.50   -3.60  FeS
  Maghemite         0.61      7.00    6.39  Fe2O3
  Magnesioferrite  -6.32     11.71   18.03  Fe2MgO4
  Magnesite        -9.41    -16.95   -7.54  MgCO3
  Magnetite        -1.77      2.51    4.28  Fe3O4
  Melanterite     -12.48    -14.78   -2.30  FeSO4:7H2O
  Mg(OH)2(active) -14.08      4.71   18.79  Mg(OH)2
  Mirabilite       -5.19     -6.64   -1.45  Na2SO4:10H2O
  Monteponite     -13.86      1.67   15.54  CdO
  Na-Jarosite       2.32     -8.24  -10.56  NaFe3(SO4)2(OH)6
  Natron          -16.43    -18.02   -1.59  Na2CO3:10H2O
  Nesquehonite    -12.39    -16.95   -4.57  MgCO3:3H2O
  O2(g)            -0.68     84.82   85.50  O2
  Orpiment       -435.78   -498.33  -62.54  As2S3
  Otavite          -7.99    -19.99  -12.00  CdCO3
  Periclase       -17.51      4.71   22.22  MgO
  Portlandite     -17.74      5.61   23.35  Ca(OH)2
  Pyrite         -235.37   -254.09  -18.72  FeS2
  Realgar        -177.08   -197.37  -20.29  AsS
  Siderite        -15.98    -26.16  -10.17  FeCO3
  Sulfur         -101.52   -103.59   -2.08  S
  Thenardite       -7.00     -6.64    0.36  Na2SO4
  Thermonatrite   -18.70    -18.02    0.68  Na2CO3:H2O

**For a gas, SI = log10(fugacity). Fugacity = pressure * phi / 1 atm.
  For ideal gases, phi = 1.

------------------
End of simulation.
------------------

------------------------------------
Reading input data for simulation 9.
------------------------------------

-------------------------------
End of Run after 1.362 Seconds.
-------------------------------

