   Input file: ../examples/Ex3_Exchange_Dune_T_P_Range
  Output file: ../examples/Ex3_Exchange_Dune_T_P_Range.out
Database file: ../database/phreeqc.dat

------------------
Reading data base.
------------------

	SOLUTION_MASTER_SPECIES
	SOLUTION_SPECIES
	PHASES
	EXCHANGE_MASTER_SPECIES
	EXCHANGE_SPECIES
	SURFACE_MASTER_SPECIES
	SURFACE_SPECIES
	RATES
	END
------------------------------------
Reading input data for simulation 1.
------------------------------------

	DATABASE ../database/phreeqc.dat
	TITLE Exchange in Dune sand, P = 1 atm
	SOLUTION 1
	pressure 1.0
	Na 1.10006
	Mg 0.48
	Ca 1.9
	EXCHANGE 1
	X 0.06	#moles
	equilibrate 1
	PRINT 
	reset false
-----------------------------Solution composition------------------------------

	Elements           Molality       Moles

	Ca                1.900e-03   1.900e-03
	Mg                4.800e-04   4.800e-04
	Na                1.100e-03   1.100e-03

----------------------------Description of solution----------------------------

                                       pH  =   7.000    
                                       pe  =   4.000    
      Specific Conductance (µS/cm,  25°C)  = 289
                          Density (g/cm³)  =   0.99720
                               Volume (L)  =   1.00292
                        Activity of water  =   1.000
                 Ionic strength (mol/kgw)  =   5.310e-03
                       Mass of water (kg)  =   1.000e+00
                 Total alkalinity (eq/kg)  =   1.865e-08
                         Temperature (°C)  =  25.00
                  Electrical balance (eq)  =   5.860e-03
 Percent error, 100*(Cat-|An|)/(Cat+|An|)  = 100.00
                               Iterations  =   4
                                  Total H  = 1.110124e+02
                                  Total O  = 5.550622e+01

X                6.000e-02 mol

	                               Equiv-    Equivalent      Log 
	Species             Moles      alents      Fraction     Gamma

	CaX2              2.564e-02   5.127e-02   8.545e-01    -0.132
	MgX2              4.086e-03   8.172e-03   1.362e-01    -0.130
	NaX               5.572e-04   5.572e-04   9.287e-03    -0.033

-----------------------------Exchange composition------------------------------

X                6.000e-02 mol

	                               Equiv-    Equivalent      Log 
	Species             Moles      alents      Fraction     Gamma

	CaX2              2.564e-02   5.127e-02   8.545e-01    -0.132
	MgX2              4.086e-03   8.172e-03   1.362e-01    -0.130
	NaX               5.572e-04   5.572e-04   9.287e-03    -0.033

-----------------------------Solution composition------------------------------

	Elements           Molality       Moles

	Ca                1.900e-03   1.900e-03
	Mg                4.800e-04   4.800e-04
	Na                1.100e-03   1.100e-03

----------------------------Description of solution----------------------------

                                       pH  =   7.000      Charge balance
                                       pe  =   4.000      Adjusted to redox equilibrium
      Specific Conductance (µS/cm,  25°C)  = 289
                          Density (g/cm³)  =   0.99720
                               Volume (L)  =   1.00292
                        Activity of water  =   1.000
                 Ionic strength (mol/kgw)  =   5.310e-03
                       Mass of water (kg)  =   1.000e+00
                 Total alkalinity (eq/kg)  =   1.865e-08
                         Temperature (°C)  =  25.00
                  Electrical balance (eq)  =   5.860e-03
 Percent error, 100*(Cat-|An|)/(Cat+|An|)  = 100.00
                               Iterations  =   0
                                  Total H  = 1.110124e+02
                                  Total O  = 5.550622e+01

-----------------------------Exchange composition------------------------------

X                6.000e-02 mol

	                               Equiv-    Equivalent      Log 
	Species             Moles      alents      Fraction     Gamma

	CaX2              2.564e-02   5.128e-02   8.546e-01    -0.133
	MgX2              4.087e-03   8.175e-03   1.362e-01    -0.131
	NaX               5.487e-04   5.487e-04   9.146e-03    -0.034

-----------------------------Solution composition------------------------------

	Elements           Molality       Moles

	Ca                1.897e-03   1.897e-03
	Mg                4.787e-04   4.787e-04
	Na                1.109e-03   1.109e-03

----------------------------Description of solution----------------------------

                                       pH  =   6.913      Charge balance
                                       pe  =  -1.590      Adjusted to redox equilibrium
      Specific Conductance (µS/cm,  30°C)  = 321
                          Density (g/cm³)  =   0.99580
                               Volume (L)  =   1.00433
                        Activity of water  =   1.000
                 Ionic strength (mol/kgw)  =   5.306e-03
                       Mass of water (kg)  =   1.000e+00
                 Total alkalinity (eq/kg)  =   1.865e-08
                         Temperature (°C)  =  30.00
                  Electrical balance (eq)  =   5.860e-03
 Percent error, 100*(Cat-|An|)/(Cat+|An|)  = 100.00
                               Iterations  =   8
                                  Total H  = 1.110124e+02
                                  Total O  = 5.550622e+01

-----------------------------Exchange composition------------------------------

X                6.000e-02 mol

	                               Equiv-    Equivalent      Log 
	Species             Moles      alents      Fraction     Gamma

	CaX2              2.564e-02   5.128e-02   8.547e-01    -0.134
	MgX2              4.089e-03   8.177e-03   1.363e-01    -0.133
	NaX               5.406e-04   5.406e-04   9.009e-03    -0.034

-----------------------------Solution composition------------------------------

	Elements           Molality       Moles

	Ca                1.894e-03   1.894e-03
	Mg                4.775e-04   4.775e-04
	Na                1.117e-03   1.117e-03

----------------------------Description of solution----------------------------

                                       pH  =   6.830      Charge balance
                                       pe  =  -1.399      Adjusted to redox equilibrium
      Specific Conductance (µS/cm,  35°C)  = 353
                          Density (g/cm³)  =   0.99419
                               Volume (L)  =   1.00596
                        Activity of water  =   1.000
                 Ionic strength (mol/kgw)  =   5.302e-03
                       Mass of water (kg)  =   1.000e+00
                 Total alkalinity (eq/kg)  =   1.865e-08
                         Temperature (°C)  =  35.00
                  Electrical balance (eq)  =   5.860e-03
 Percent error, 100*(Cat-|An|)/(Cat+|An|)  =  99.99
                               Iterations  =   9
                                  Total H  = 1.110124e+02
                                  Total O  = 5.550622e+01

-----------------------------Exchange composition------------------------------

X                6.000e-02 mol

	                               Equiv-    Equivalent      Log 
	Species             Moles      alents      Fraction     Gamma

	CaX2              2.564e-02   5.129e-02   8.548e-01    -0.135
	MgX2              4.090e-03   8.180e-03   1.363e-01    -0.134
	NaX               5.327e-04   5.327e-04   8.878e-03    -0.034

-----------------------------Solution composition------------------------------

	Elements           Molality       Moles

	Ca                1.891e-03   1.891e-03
	Mg                4.763e-04   4.763e-04
	Na                1.125e-03   1.125e-03

----------------------------Description of solution----------------------------

                                       pH  =   6.752      Charge balance
                                       pe  =  -1.359      Adjusted to redox equilibrium
      Specific Conductance (µS/cm,  40°C)  = 386
                          Density (g/cm³)  =   0.99237
                               Volume (L)  =   1.00780
                        Activity of water  =   1.000
                 Ionic strength (mol/kgw)  =   5.298e-03
                       Mass of water (kg)  =   1.000e+00
                 Total alkalinity (eq/kg)  =   1.865e-08
                         Temperature (°C)  =  40.00
                  Electrical balance (eq)  =   5.860e-03
 Percent error, 100*(Cat-|An|)/(Cat+|An|)  =  99.99
                               Iterations  =   9
                                  Total H  = 1.110124e+02
                                  Total O  = 5.550622e+01

-----------------------------Exchange composition------------------------------

X                6.000e-02 mol

	                               Equiv-    Equivalent      Log 
	Species             Moles      alents      Fraction     Gamma

	CaX2              2.565e-02   5.129e-02   8.549e-01    -0.137
	MgX2              4.091e-03   8.182e-03   1.364e-01    -0.135
	NaX               5.251e-04   5.251e-04   8.752e-03    -0.035

-----------------------------Solution composition------------------------------

	Elements           Molality       Moles

	Ca                1.889e-03   1.889e-03
	Mg                4.751e-04   4.751e-04
	Na                1.132e-03   1.132e-03

----------------------------Description of solution----------------------------

                                       pH  =   6.677      Charge balance
                                       pe  =  -1.315      Adjusted to redox equilibrium
      Specific Conductance (µS/cm,  45°C)  = 421
                          Density (g/cm³)  =   0.99036
                               Volume (L)  =   1.00984
                        Activity of water  =   1.000
                 Ionic strength (mol/kgw)  =   5.294e-03
                       Mass of water (kg)  =   1.000e+00
                 Total alkalinity (eq/kg)  =   1.865e-08
                         Temperature (°C)  =  45.00
                  Electrical balance (eq)  =   5.860e-03
 Percent error, 100*(Cat-|An|)/(Cat+|An|)  =  99.99
                               Iterations  =   9
                                  Total H  = 1.110124e+02
                                  Total O  = 5.550622e+01

-----------------------------Exchange composition------------------------------

X                6.000e-02 mol

	                               Equiv-    Equivalent      Log 
	Species             Moles      alents      Fraction     Gamma

	CaX2              2.565e-02   5.130e-02   8.550e-01    -0.138
	MgX2              4.092e-03   8.184e-03   1.364e-01    -0.136
	NaX               5.179e-04   5.179e-04   8.631e-03    -0.035

-----------------------------Solution composition------------------------------

	Elements           Molality       Moles

	Ca                1.886e-03   1.886e-03
	Mg                4.740e-04   4.740e-04
	Na                1.139e-03   1.139e-03

----------------------------Description of solution----------------------------

                                       pH  =   6.606      Charge balance
                                       pe  =  -1.265      Adjusted to redox equilibrium
      Specific Conductance (µS/cm,  50°C)  = 456
                          Density (g/cm³)  =   0.98819
                               Volume (L)  =   1.01207
                        Activity of water  =   1.000
                 Ionic strength (mol/kgw)  =   5.291e-03
                       Mass of water (kg)  =   1.000e+00
                 Total alkalinity (eq/kg)  =   1.865e-08
                         Temperature (°C)  =  50.00
                  Electrical balance (eq)  =   5.860e-03
 Percent error, 100*(Cat-|An|)/(Cat+|An|)  =  99.99
                               Iterations  =   9
                                  Total H  = 1.110124e+02
                                  Total O  = 5.550622e+01

-----------------------------Exchange composition------------------------------

X                6.000e-02 mol

	                               Equiv-    Equivalent      Log 
	Species             Moles      alents      Fraction     Gamma

	CaX2              2.565e-02   5.130e-02   8.550e-01    -0.139
	MgX2              4.093e-03   8.186e-03   1.364e-01    -0.138
	NaX               5.109e-04   5.109e-04   8.515e-03    -0.035

-----------------------------Solution composition------------------------------

	Elements           Molality       Moles

	Ca                1.884e-03   1.884e-03
	Mg                4.730e-04   4.730e-04
	Na                1.146e-03   1.146e-03

----------------------------Description of solution----------------------------

                                       pH  =   6.538      Charge balance
                                       pe  =  -1.210      Adjusted to redox equilibrium
      Specific Conductance (µS/cm,  55°C)  = 492
                          Density (g/cm³)  =   0.98584
                               Volume (L)  =   1.01448
                        Activity of water  =   1.000
                 Ionic strength (mol/kgw)  =   5.287e-03
                       Mass of water (kg)  =   1.000e+00
                 Total alkalinity (eq/kg)  =   1.865e-08
                         Temperature (°C)  =  55.00
                  Electrical balance (eq)  =   5.860e-03
 Percent error, 100*(Cat-|An|)/(Cat+|An|)  =  99.99
                               Iterations  =   9
                                  Total H  = 1.110124e+02
                                  Total O  = 5.550622e+01

-----------------------------Exchange composition------------------------------

X                6.000e-02 mol

	                               Equiv-    Equivalent      Log 
	Species             Moles      alents      Fraction     Gamma

	CaX2              2.565e-02   5.131e-02   8.551e-01    -0.141
	MgX2              4.094e-03   8.188e-03   1.365e-01    -0.139
	NaX               5.041e-04   5.041e-04   8.402e-03    -0.036

-----------------------------Solution composition------------------------------

	Elements           Molality       Moles

	Ca                1.881e-03   1.881e-03
	Mg                4.720e-04   4.720e-04
	Na                1.153e-03   1.153e-03

----------------------------Description of solution----------------------------

                                       pH  =   6.474      Charge balance
                                       pe  =  -1.152      Adjusted to redox equilibrium
      Specific Conductance (µS/cm,  60°C)  = 528
                          Density (g/cm³)  =   0.98334
                               Volume (L)  =   1.01705
                        Activity of water  =   1.000
                 Ionic strength (mol/kgw)  =   5.284e-03
                       Mass of water (kg)  =   1.000e+00
                 Total alkalinity (eq/kg)  =   1.865e-08
                         Temperature (°C)  =  60.00
                  Electrical balance (eq)  =   5.860e-03
 Percent error, 100*(Cat-|An|)/(Cat+|An|)  =  99.99
                               Iterations  =   9
                                  Total H  = 1.110124e+02
                                  Total O  = 5.550622e+01

-----------------------------Exchange composition------------------------------

X                6.000e-02 mol

	                               Equiv-    Equivalent      Log 
	Species             Moles      alents      Fraction     Gamma

	CaX2              2.566e-02   5.131e-02   8.552e-01    -0.142
	MgX2              4.095e-03   8.190e-03   1.365e-01    -0.140
	NaX               4.976e-04   4.976e-04   8.294e-03    -0.036

-----------------------------Solution composition------------------------------

	Elements           Molality       Moles

	Ca                1.879e-03   1.879e-03
	Mg                4.710e-04   4.710e-04
	Na                1.160e-03   1.160e-03

----------------------------Description of solution----------------------------

                                       pH  =   6.411      Charge balance
                                       pe  =  -1.091      Adjusted to redox equilibrium
      Specific Conductance (µS/cm,  65°C)  = 565
                          Density (g/cm³)  =   0.98070
                               Volume (L)  =   1.01980
                        Activity of water  =   1.000
                 Ionic strength (mol/kgw)  =   5.280e-03
                       Mass of water (kg)  =   1.000e+00
                 Total alkalinity (eq/kg)  =   1.865e-08
                         Temperature (°C)  =  65.00
                  Electrical balance (eq)  =   5.860e-03
 Percent error, 100*(Cat-|An|)/(Cat+|An|)  =  99.99
                               Iterations  =   9
                                  Total H  = 1.110124e+02
                                  Total O  = 5.550622e+01

-----------------------------Exchange composition------------------------------

X                6.000e-02 mol

	                               Equiv-    Equivalent      Log 
	Species             Moles      alents      Fraction     Gamma

	CaX2              2.566e-02   5.132e-02   8.553e-01    -0.144
	MgX2              4.096e-03   8.192e-03   1.365e-01    -0.142
	NaX               4.914e-04   4.914e-04   8.190e-03    -0.036

-----------------------------Solution composition------------------------------

	Elements           Molality       Moles

	Ca                1.877e-03   1.877e-03
	Mg                4.700e-04   4.700e-04
	Na                1.166e-03   1.166e-03

----------------------------Description of solution----------------------------

                                       pH  =   6.352      Charge balance
                                       pe  =  -1.031      Adjusted to redox equilibrium
      Specific Conductance (µS/cm,  70°C)  = 603
                          Density (g/cm³)  =   0.97791
                               Volume (L)  =   1.02270
                        Activity of water  =   1.000
                 Ionic strength (mol/kgw)  =   5.277e-03
                       Mass of water (kg)  =   1.000e+00
                 Total alkalinity (eq/kg)  =   1.865e-08
                         Temperature (°C)  =  70.00
                  Electrical balance (eq)  =   5.860e-03
 Percent error, 100*(Cat-|An|)/(Cat+|An|)  =  99.99
                               Iterations  =   9
                                  Total H  = 1.110124e+02
                                  Total O  = 5.550622e+01

-----------------------------Exchange composition------------------------------

X                6.000e-02 mol

	                               Equiv-    Equivalent      Log 
	Species             Moles      alents      Fraction     Gamma

	CaX2              2.566e-02   5.132e-02   8.553e-01    -0.145
	MgX2              4.097e-03   8.194e-03   1.366e-01    -0.143
	NaX               4.854e-04   4.854e-04   8.089e-03    -0.037

-----------------------------Solution composition------------------------------

	Elements           Molality       Moles

	Ca                1.875e-03   1.875e-03
	Mg                4.691e-04   4.691e-04
	Na                1.172e-03   1.172e-03

----------------------------Description of solution----------------------------

                                       pH  =   6.295      Charge balance
                                       pe  =  -0.997      Adjusted to redox equilibrium
      Specific Conductance (µS/cm,  75°C)  = 641
                          Density (g/cm³)  =   0.97499
                               Volume (L)  =   1.02577
                        Activity of water  =   1.000
                 Ionic strength (mol/kgw)  =   5.274e-03
                       Mass of water (kg)  =   1.000e+00
                 Total alkalinity (eq/kg)  =   1.865e-08
                         Temperature (°C)  =  75.00
                  Electrical balance (eq)  =   5.860e-03
 Percent error, 100*(Cat-|An|)/(Cat+|An|)  =  99.98
                               Iterations  =   9
                                  Total H  = 1.110124e+02
                                  Total O  = 5.550622e+01

-----------------------------Exchange composition------------------------------

X                6.000e-02 mol

	                               Equiv-    Equivalent      Log 
	Species             Moles      alents      Fraction     Gamma

	CaX2              2.566e-02   5.132e-02   8.554e-01    -0.147
	MgX2              4.098e-03   8.196e-03   1.366e-01    -0.145
	NaX               4.795e-04   4.795e-04   7.992e-03    -0.037

-----------------------------Solution composition------------------------------

	Elements           Molality       Moles

	Ca                1.873e-03   1.873e-03
	Mg                4.682e-04   4.682e-04
	Na                1.178e-03   1.178e-03

----------------------------Description of solution----------------------------

                                       pH  =   6.240      Charge balance
                                       pe  =  -0.942      Adjusted to redox equilibrium
      Specific Conductance (µS/cm,  80°C)  = 679
                          Density (g/cm³)  =   0.97194
                               Volume (L)  =   1.02899
                        Activity of water  =   1.000
                 Ionic strength (mol/kgw)  =   5.272e-03
                       Mass of water (kg)  =   1.000e+00
                 Total alkalinity (eq/kg)  =   1.865e-08
                         Temperature (°C)  =  80.00
                  Electrical balance (eq)  =   5.860e-03
 Percent error, 100*(Cat-|An|)/(Cat+|An|)  =  99.98
                               Iterations  =   9
                                  Total H  = 1.110124e+02
                                  Total O  = 5.550622e+01

-----------------------------Exchange composition------------------------------

X                6.000e-02 mol

	                               Equiv-    Equivalent      Log 
	Species             Moles      alents      Fraction     Gamma

	CaX2              2.566e-02   5.133e-02   8.555e-01    -0.149
	MgX2              4.099e-03   8.197e-03   1.366e-01    -0.147
	NaX               4.739e-04   4.739e-04   7.899e-03    -0.038

-----------------------------Solution composition------------------------------

	Elements           Molality       Moles

	Ca                1.871e-03   1.871e-03
	Mg                4.674e-04   4.674e-04
	Na                1.183e-03   1.183e-03

----------------------------Description of solution----------------------------

                                       pH  =   6.187      Charge balance
                                       pe  =  -0.762      Adjusted to redox equilibrium
      Specific Conductance (µS/cm,  85°C)  = 718
                          Density (g/cm³)  =   0.96876
                               Volume (L)  =   1.03236
                        Activity of water  =   1.000
                 Ionic strength (mol/kgw)  =   5.269e-03
                       Mass of water (kg)  =   1.000e+00
                 Total alkalinity (eq/kg)  =   1.865e-08
                         Temperature (°C)  =  85.00
                  Electrical balance (eq)  =   5.860e-03
 Percent error, 100*(Cat-|An|)/(Cat+|An|)  =  99.98
                               Iterations  =  10
                                  Total H  = 1.110124e+02
                                  Total O  = 5.550622e+01

-----------------------------Exchange composition------------------------------

X                6.000e-02 mol

	                               Equiv-    Equivalent      Log 
	Species             Moles      alents      Fraction     Gamma

	CaX2              2.567e-02   5.133e-02   8.555e-01    -0.150
	MgX2              4.100e-03   8.199e-03   1.367e-01    -0.148
	NaX               4.685e-04   4.685e-04   7.808e-03    -0.038

-----------------------------Solution composition------------------------------

	Elements           Molality       Moles

	Ca                1.869e-03   1.869e-03
	Mg                4.666e-04   4.666e-04
	Na                1.189e-03   1.189e-03

----------------------------Description of solution----------------------------

                                       pH  =   6.136      Charge balance
                                       pe  =  -0.714      Adjusted to redox equilibrium
      Specific Conductance (µS/cm,  90°C)  = 756
                          Density (g/cm³)  =   0.96546
                               Volume (L)  =   1.03589
                        Activity of water  =   1.000
                 Ionic strength (mol/kgw)  =   5.266e-03
                       Mass of water (kg)  =   1.000e+00
                 Total alkalinity (eq/kg)  =   1.865e-08
                         Temperature (°C)  =  90.00
                  Electrical balance (eq)  =   5.860e-03
 Percent error, 100*(Cat-|An|)/(Cat+|An|)  =  99.98
                               Iterations  =  10
                                  Total H  = 1.110124e+02
                                  Total O  = 5.550622e+01

-----------------------------Solution composition------------------------------

	Elements           Molality       Moles

	Ca                1.900e-03   1.900e-03
	Mg                4.800e-04   4.800e-04
	Na                1.100e-03   1.100e-03

----------------------------Description of solution----------------------------

                                       pH  =   7.000    
                                       pe  =   4.000    
      Specific Conductance (µS/cm,  25°C)  = 289
                          Density (g/cm³)  =   0.99761
                               Volume (L)  =   1.00251
                        Activity of water  =   1.000
                 Ionic strength (mol/kgw)  =   5.310e-03
                       Mass of water (kg)  =   1.000e+00
                 Total alkalinity (eq/kg)  =   1.952e-08
                         Temperature (°C)  =  25.00
                           Pressure (atm)  = 10.00
                  Electrical balance (eq)  =   5.860e-03
 Percent error, 100*(Cat-|An|)/(Cat+|An|)  = 100.00
                               Iterations  =   4
                                  Total H  = 1.110124e+02
                                  Total O  = 5.550622e+01

X                6.000e-02 mol

	                               Equiv-    Equivalent      Log 
	Species             Moles      alents      Fraction     Gamma

	CaX2              2.564e-02   5.128e-02   8.546e-01    -0.132
	MgX2              4.081e-03   8.163e-03   1.360e-01    -0.130
	NaX               5.588e-04   5.588e-04   9.314e-03    -0.033

-----------------------------Exchange composition------------------------------

X                6.000e-02 mol

	                               Equiv-    Equivalent      Log 
	Species             Moles      alents      Fraction     Gamma

	CaX2              2.564e-02   5.128e-02   8.546e-01    -0.132
	MgX2              4.081e-03   8.163e-03   1.360e-01    -0.130
	NaX               5.588e-04   5.588e-04   9.314e-03    -0.033

-----------------------------Solution composition------------------------------

	Elements           Molality       Moles

	Ca                1.900e-03   1.900e-03
	Mg                4.800e-04   4.800e-04
	Na                1.100e-03   1.100e-03

----------------------------Description of solution----------------------------

                                       pH  =   7.000      Charge balance
                                       pe  =   4.000      Adjusted to redox equilibrium
      Specific Conductance (µS/cm,  25°C)  = 289
                          Density (g/cm³)  =   0.99761
                               Volume (L)  =   1.00251
                        Activity of water  =   1.000
                 Ionic strength (mol/kgw)  =   5.310e-03
                       Mass of water (kg)  =   1.000e+00
                 Total alkalinity (eq/kg)  =   1.952e-08
                         Temperature (°C)  =  25.00
                           Pressure (atm)  = 10.00
                  Electrical balance (eq)  =   5.860e-03
 Percent error, 100*(Cat-|An|)/(Cat+|An|)  = 100.00
                               Iterations  =   0
                                  Total H  = 1.110124e+02
                                  Total O  = 5.550622e+01

-----------------------------Exchange composition------------------------------

X                6.000e-02 mol

	                               Equiv-    Equivalent      Log 
	Species             Moles      alents      Fraction     Gamma

	CaX2              2.564e-02   5.128e-02   8.547e-01    -0.133
	MgX2              4.083e-03   8.165e-03   1.361e-01    -0.131
	NaX               5.503e-04   5.503e-04   9.172e-03    -0.034

-----------------------------Solution composition------------------------------

	Elements           Molality       Moles

	Ca                1.897e-03   1.897e-03
	Mg                4.787e-04   4.787e-04
	Na                1.109e-03   1.109e-03

----------------------------Description of solution----------------------------

                                       pH  =   6.913      Charge balance
                                       pe  =  -0.931      Adjusted to redox equilibrium
      Specific Conductance (µS/cm,  30°C)  = 321
                          Density (g/cm³)  =   0.99620
                               Volume (L)  =   1.00393
                        Activity of water  =   1.000
                 Ionic strength (mol/kgw)  =   5.306e-03
                       Mass of water (kg)  =   1.000e+00
                 Total alkalinity (eq/kg)  =   1.952e-08
                         Temperature (°C)  =  30.00
                           Pressure (atm)  = 10.00
                  Electrical balance (eq)  =   5.860e-03
 Percent error, 100*(Cat-|An|)/(Cat+|An|)  = 100.00
                               Iterations  =   8
                                  Total H  = 1.110124e+02
                                  Total O  = 5.550622e+01

-----------------------------Exchange composition------------------------------

X                6.000e-02 mol

	                               Equiv-    Equivalent      Log 
	Species             Moles      alents      Fraction     Gamma

	CaX2              2.565e-02   5.129e-02   8.548e-01    -0.134
	MgX2              4.084e-03   8.168e-03   1.361e-01    -0.132
	NaX               5.421e-04   5.421e-04   9.036e-03    -0.034

-----------------------------Solution composition------------------------------

	Elements           Molality       Moles

	Ca                1.894e-03   1.894e-03
	Mg                4.775e-04   4.775e-04
	Na                1.117e-03   1.117e-03

----------------------------Description of solution----------------------------

                                       pH  =   6.830      Charge balance
                                       pe  =  -0.859      Adjusted to redox equilibrium
      Specific Conductance (µS/cm,  35°C)  = 353
                          Density (g/cm³)  =   0.99458
                               Volume (L)  =   1.00556
                        Activity of water  =   1.000
                 Ionic strength (mol/kgw)  =   5.302e-03
                       Mass of water (kg)  =   1.000e+00
                 Total alkalinity (eq/kg)  =   1.952e-08
                         Temperature (°C)  =  35.00
                           Pressure (atm)  = 10.00
                  Electrical balance (eq)  =   5.860e-03
 Percent error, 100*(Cat-|An|)/(Cat+|An|)  =  99.99
                               Iterations  =   8
                                  Total H  = 1.110124e+02
                                  Total O  = 5.550622e+01

-----------------------------Exchange composition------------------------------

X                6.000e-02 mol

	                               Equiv-    Equivalent      Log 
	Species             Moles      alents      Fraction     Gamma

	CaX2              2.565e-02   5.130e-02   8.549e-01    -0.135
	MgX2              4.085e-03   8.170e-03   1.362e-01    -0.134
	NaX               5.343e-04   5.343e-04   8.905e-03    -0.034

-----------------------------Solution composition------------------------------

	Elements           Molality       Moles

	Ca                1.891e-03   1.891e-03
	Mg                4.763e-04   4.763e-04
	Na                1.125e-03   1.125e-03

----------------------------Description of solution----------------------------

                                       pH  =   6.752      Charge balance
                                       pe  =  -0.790      Adjusted to redox equilibrium
      Specific Conductance (µS/cm,  40°C)  = 386
                          Density (g/cm³)  =   0.99276
                               Volume (L)  =   1.00741
                        Activity of water  =   1.000
                 Ionic strength (mol/kgw)  =   5.298e-03
                       Mass of water (kg)  =   1.000e+00
                 Total alkalinity (eq/kg)  =   1.952e-08
                         Temperature (°C)  =  40.00
                           Pressure (atm)  = 10.00
                  Electrical balance (eq)  =   5.860e-03
 Percent error, 100*(Cat-|An|)/(Cat+|An|)  =  99.99
                               Iterations  =   8
                                  Total H  = 1.110124e+02
                                  Total O  = 5.550622e+01

-----------------------------Exchange composition------------------------------

X                6.000e-02 mol

	                               Equiv-    Equivalent      Log 
	Species             Moles      alents      Fraction     Gamma

	CaX2              2.565e-02   5.130e-02   8.550e-01    -0.137
	MgX2              4.086e-03   8.172e-03   1.362e-01    -0.135
	NaX               5.267e-04   5.267e-04   8.779e-03    -0.035

-----------------------------Solution composition------------------------------

	Elements           Molality       Moles

	Ca                1.889e-03   1.889e-03
	Mg                4.752e-04   4.752e-04
	Na                1.132e-03   1.132e-03

----------------------------Description of solution----------------------------

                                       pH  =   6.677      Charge balance
                                       pe  =  -0.726      Adjusted to redox equilibrium
      Specific Conductance (µS/cm,  45°C)  = 421
                          Density (g/cm³)  =   0.99076
                               Volume (L)  =   1.00945
                        Activity of water  =   1.000
                 Ionic strength (mol/kgw)  =   5.294e-03
                       Mass of water (kg)  =   1.000e+00
                 Total alkalinity (eq/kg)  =   1.952e-08
                         Temperature (°C)  =  45.00
                           Pressure (atm)  = 10.00
                  Electrical balance (eq)  =   5.860e-03
 Percent error, 100*(Cat-|An|)/(Cat+|An|)  =  99.99
                               Iterations  =   9
                                  Total H  = 1.110124e+02
                                  Total O  = 5.550622e+01

-----------------------------Exchange composition------------------------------

X                6.000e-02 mol

	                               Equiv-    Equivalent      Log 
	Species             Moles      alents      Fraction     Gamma

	CaX2              2.565e-02   5.131e-02   8.551e-01    -0.138
	MgX2              4.087e-03   8.174e-03   1.362e-01    -0.136
	NaX               5.194e-04   5.194e-04   8.657e-03    -0.035

-----------------------------Solution composition------------------------------

	Elements           Molality       Moles

	Ca                1.886e-03   1.886e-03
	Mg                4.741e-04   4.741e-04
	Na                1.139e-03   1.139e-03

----------------------------Description of solution----------------------------

                                       pH  =   6.606      Charge balance
                                       pe  =  -0.664      Adjusted to redox equilibrium
      Specific Conductance (µS/cm,  50°C)  = 456
                          Density (g/cm³)  =   0.98858
                               Volume (L)  =   1.01167
                        Activity of water  =   1.000
                 Ionic strength (mol/kgw)  =   5.291e-03
                       Mass of water (kg)  =   1.000e+00
                 Total alkalinity (eq/kg)  =   1.952e-08
                         Temperature (°C)  =  50.00
                           Pressure (atm)  = 10.00
                  Electrical balance (eq)  =   5.860e-03
 Percent error, 100*(Cat-|An|)/(Cat+|An|)  =  99.99
                               Iterations  =   9
                                  Total H  = 1.110124e+02
                                  Total O  = 5.550622e+01

-----------------------------Exchange composition------------------------------

X                6.000e-02 mol

	                               Equiv-    Equivalent      Log 
	Species             Moles      alents      Fraction     Gamma

	CaX2              2.566e-02   5.131e-02   8.552e-01    -0.139
	MgX2              4.088e-03   8.176e-03   1.363e-01    -0.137
	NaX               5.124e-04   5.124e-04   8.541e-03    -0.035

-----------------------------Solution composition------------------------------

	Elements           Molality       Moles

	Ca                1.884e-03   1.884e-03
	Mg                4.730e-04   4.730e-04
	Na                1.146e-03   1.146e-03

----------------------------Description of solution----------------------------

                                       pH  =   6.538      Charge balance
                                       pe  =  -0.605      Adjusted to redox equilibrium
      Specific Conductance (µS/cm,  55°C)  = 491
                          Density (g/cm³)  =   0.98624
                               Volume (L)  =   1.01407
                        Activity of water  =   1.000
                 Ionic strength (mol/kgw)  =   5.287e-03
                       Mass of water (kg)  =   1.000e+00
                 Total alkalinity (eq/kg)  =   1.952e-08
                         Temperature (°C)  =  55.00
                           Pressure (atm)  = 10.00
                  Electrical balance (eq)  =   5.860e-03
 Percent error, 100*(Cat-|An|)/(Cat+|An|)  =  99.99
                               Iterations  =   9
                                  Total H  = 1.110124e+02
                                  Total O  = 5.550622e+01

-----------------------------Exchange composition------------------------------

X                6.000e-02 mol

	                               Equiv-    Equivalent      Log 
	Species             Moles      alents      Fraction     Gamma

	CaX2              2.566e-02   5.132e-02   8.553e-01    -0.141
	MgX2              4.089e-03   8.178e-03   1.363e-01    -0.139
	NaX               5.057e-04   5.057e-04   8.428e-03    -0.036

-----------------------------Solution composition------------------------------

	Elements           Molality       Moles

	Ca                1.881e-03   1.881e-03
	Mg                4.720e-04   4.720e-04
	Na                1.153e-03   1.153e-03

----------------------------Description of solution----------------------------

                                       pH  =   6.473      Charge balance
                                       pe  =  -0.548      Adjusted to redox equilibrium
      Specific Conductance (µS/cm,  60°C)  = 528
                          Density (g/cm³)  =   0.98374
                               Volume (L)  =   1.01664
                        Activity of water  =   1.000
                 Ionic strength (mol/kgw)  =   5.284e-03
                       Mass of water (kg)  =   1.000e+00
                 Total alkalinity (eq/kg)  =   1.952e-08
                         Temperature (°C)  =  60.00
                           Pressure (atm)  = 10.00
                  Electrical balance (eq)  =   5.860e-03
 Percent error, 100*(Cat-|An|)/(Cat+|An|)  =  99.99
                               Iterations  =   9
                                  Total H  = 1.110124e+02
                                  Total O  = 5.550622e+01

-----------------------------Exchange composition------------------------------

X                6.000e-02 mol

	                               Equiv-    Equivalent      Log 
	Species             Moles      alents      Fraction     Gamma

	CaX2              2.566e-02   5.132e-02   8.553e-01    -0.142
	MgX2              4.090e-03   8.180e-03   1.363e-01    -0.140
	NaX               4.992e-04   4.992e-04   8.320e-03    -0.036

-----------------------------Solution composition------------------------------

	Elements           Molality       Moles

	Ca                1.879e-03   1.879e-03
	Mg                4.710e-04   4.710e-04
	Na                1.160e-03   1.160e-03

----------------------------Description of solution----------------------------

                                       pH  =   6.411      Charge balance
                                       pe  =  -0.495      Adjusted to redox equilibrium
      Specific Conductance (µS/cm,  65°C)  = 565
                          Density (g/cm³)  =   0.98110
                               Volume (L)  =   1.01938
                        Activity of water  =   1.000
                 Ionic strength (mol/kgw)  =   5.280e-03
                       Mass of water (kg)  =   1.000e+00
                 Total alkalinity (eq/kg)  =   1.952e-08
                         Temperature (°C)  =  65.00
                           Pressure (atm)  = 10.00
                  Electrical balance (eq)  =   5.860e-03
 Percent error, 100*(Cat-|An|)/(Cat+|An|)  =  99.99
                               Iterations  =   9
                                  Total H  = 1.110124e+02
                                  Total O  = 5.550622e+01

-----------------------------Exchange composition------------------------------

X                6.000e-02 mol

	                               Equiv-    Equivalent      Log 
	Species             Moles      alents      Fraction     Gamma

	CaX2              2.566e-02   5.132e-02   8.554e-01    -0.144
	MgX2              4.091e-03   8.182e-03   1.364e-01    -0.142
	NaX               4.929e-04   4.929e-04   8.215e-03    -0.036

-----------------------------Solution composition------------------------------

	Elements           Molality       Moles

	Ca                1.877e-03   1.877e-03
	Mg                4.701e-04   4.701e-04
	Na                1.166e-03   1.166e-03

----------------------------Description of solution----------------------------

                                       pH  =   6.351      Charge balance
                                       pe  =  -0.443      Adjusted to redox equilibrium
      Specific Conductance (µS/cm,  70°C)  = 602
                          Density (g/cm³)  =   0.97831
                               Volume (L)  =   1.02228
                        Activity of water  =   1.000
                 Ionic strength (mol/kgw)  =   5.277e-03
                       Mass of water (kg)  =   1.000e+00
                 Total alkalinity (eq/kg)  =   1.952e-08
                         Temperature (°C)  =  70.00
                           Pressure (atm)  = 10.00
                  Electrical balance (eq)  =   5.860e-03
 Percent error, 100*(Cat-|An|)/(Cat+|An|)  =  99.99
                               Iterations  =   9
                                  Total H  = 1.110124e+02
                                  Total O  = 5.550622e+01

-----------------------------Exchange composition------------------------------

X                6.000e-02 mol

	                               Equiv-    Equivalent      Log 
	Species             Moles      alents      Fraction     Gamma

	CaX2              2.566e-02   5.133e-02   8.555e-01    -0.145
	MgX2              4.092e-03   8.184e-03   1.364e-01    -0.143
	NaX               4.869e-04   4.869e-04   8.115e-03    -0.037

-----------------------------Solution composition------------------------------

	Elements           Molality       Moles

	Ca                1.875e-03   1.875e-03
	Mg                4.692e-04   4.692e-04
	Na                1.172e-03   1.172e-03

----------------------------Description of solution----------------------------

                                       pH  =   6.294      Charge balance
                                       pe  =  -0.394      Adjusted to redox equilibrium
      Specific Conductance (µS/cm,  75°C)  = 640
                          Density (g/cm³)  =   0.97540
                               Volume (L)  =   1.02534
                        Activity of water  =   1.000
                 Ionic strength (mol/kgw)  =   5.274e-03
                       Mass of water (kg)  =   1.000e+00
                 Total alkalinity (eq/kg)  =   1.952e-08
                         Temperature (°C)  =  75.00
                           Pressure (atm)  = 10.00
                  Electrical balance (eq)  =   5.860e-03
 Percent error, 100*(Cat-|An|)/(Cat+|An|)  =  99.98
                               Iterations  =  10
                                  Total H  = 1.110124e+02
                                  Total O  = 5.550622e+01

-----------------------------Exchange composition------------------------------

X                6.000e-02 mol

	                               Equiv-    Equivalent      Log 
	Species             Moles      alents      Fraction     Gamma

	CaX2              2.567e-02   5.133e-02   8.556e-01    -0.147
	MgX2              4.093e-03   8.186e-03   1.364e-01    -0.145
	NaX               4.810e-04   4.810e-04   8.017e-03    -0.037

-----------------------------Solution composition------------------------------

	Elements           Molality       Moles

	Ca                1.873e-03   1.873e-03
	Mg                4.683e-04   4.683e-04
	Na                1.178e-03   1.178e-03

----------------------------Description of solution----------------------------

                                       pH  =   6.239      Charge balance
                                       pe  =  -0.347      Adjusted to redox equilibrium
      Specific Conductance (µS/cm,  80°C)  = 678
                          Density (g/cm³)  =   0.97235
                               Volume (L)  =   1.02855
                        Activity of water  =   1.000
                 Ionic strength (mol/kgw)  =   5.271e-03
                       Mass of water (kg)  =   1.000e+00
                 Total alkalinity (eq/kg)  =   1.952e-08
                         Temperature (°C)  =  80.00
                           Pressure (atm)  = 10.00
                  Electrical balance (eq)  =   5.860e-03
 Percent error, 100*(Cat-|An|)/(Cat+|An|)  =  99.98
                               Iterations  =  10
                                  Total H  = 1.110124e+02
                                  Total O  = 5.550622e+01

-----------------------------Exchange composition------------------------------

X                6.000e-02 mol

	                               Equiv-    Equivalent      Log 
	Species             Moles      alents      Fraction     Gamma

	CaX2              2.567e-02   5.134e-02   8.556e-01    -0.148
	MgX2              4.094e-03   8.188e-03   1.365e-01    -0.147
	NaX               4.754e-04   4.754e-04   7.924e-03    -0.038

-----------------------------Solution composition------------------------------

	Elements           Molality       Moles

	Ca                1.871e-03   1.871e-03
	Mg                4.675e-04   4.675e-04
	Na                1.183e-03   1.183e-03

----------------------------Description of solution----------------------------

                                       pH  =   6.186      Charge balance
                                       pe  =  -0.301      Adjusted to redox equilibrium
      Specific Conductance (µS/cm,  85°C)  = 717
                          Density (g/cm³)  =   0.96918
                               Volume (L)  =   1.03192
                        Activity of water  =   1.000
                 Ionic strength (mol/kgw)  =   5.269e-03
                       Mass of water (kg)  =   1.000e+00
                 Total alkalinity (eq/kg)  =   1.952e-08
                         Temperature (°C)  =  85.00
                           Pressure (atm)  = 10.00
                  Electrical balance (eq)  =   5.860e-03
 Percent error, 100*(Cat-|An|)/(Cat+|An|)  =  99.98
                               Iterations  =  11
                                  Total H  = 1.110124e+02
                                  Total O  = 5.550622e+01

-----------------------------Exchange composition------------------------------

X                6.000e-02 mol

	                               Equiv-    Equivalent      Log 
	Species             Moles      alents      Fraction     Gamma

	CaX2              2.567e-02   5.134e-02   8.557e-01    -0.150
	MgX2              4.095e-03   8.189e-03   1.365e-01    -0.148
	NaX               4.700e-04   4.700e-04   7.833e-03    -0.038

-----------------------------Solution composition------------------------------

	Elements           Molality       Moles

	Ca                1.869e-03   1.869e-03
	Mg                4.667e-04   4.667e-04
	Na                1.189e-03   1.189e-03

----------------------------Description of solution----------------------------

                                       pH  =   6.135      Charge balance
                                       pe  =  -0.258      Adjusted to redox equilibrium
      Specific Conductance (µS/cm,  90°C)  = 756
                          Density (g/cm³)  =   0.96588
                               Volume (L)  =   1.03544
                        Activity of water  =   1.000
                 Ionic strength (mol/kgw)  =   5.266e-03
                       Mass of water (kg)  =   1.000e+00
                 Total alkalinity (eq/kg)  =   1.952e-08
                         Temperature (°C)  =  90.00
                           Pressure (atm)  = 10.00
                  Electrical balance (eq)  =   5.860e-03
 Percent error, 100*(Cat-|An|)/(Cat+|An|)  =  99.98
                               Iterations  =  11
                                  Total H  = 1.110124e+02
                                  Total O  = 5.550622e+01

-----------------------------Solution composition------------------------------

	Elements           Molality       Moles

	Ca                1.900e-03   1.900e-03
	Mg                4.800e-04   4.800e-04
	Na                1.100e-03   1.100e-03

----------------------------Description of solution----------------------------

                                       pH  =   7.000    
                                       pe  =   4.000    
      Specific Conductance (µS/cm,  25°C)  = 290
                          Density (g/cm³)  =   1.00164
                               Volume (L)  =   0.99848
                        Activity of water  =   1.000
                 Ionic strength (mol/kgw)  =   5.310e-03
                       Mass of water (kg)  =   1.000e+00
                 Total alkalinity (eq/kg)  =   2.855e-08
                         Temperature (°C)  =  25.00
                           Pressure (atm)  = 100.00
                  Electrical balance (eq)  =   5.860e-03
 Percent error, 100*(Cat-|An|)/(Cat+|An|)  = 100.00
                               Iterations  =   4
                                  Total H  = 1.110124e+02
                                  Total O  = 5.550622e+01

X                6.000e-02 mol

	                               Equiv-    Equivalent      Log 
	Species             Moles      alents      Fraction     Gamma

	CaX2              2.568e-02   5.136e-02   8.560e-01    -0.131
	MgX2              4.034e-03   8.068e-03   1.345e-01    -0.130
	NaX               5.750e-04   5.750e-04   9.584e-03    -0.033

-----------------------------Exchange composition------------------------------

X                6.000e-02 mol

	                               Equiv-    Equivalent      Log 
	Species             Moles      alents      Fraction     Gamma

	CaX2              2.568e-02   5.136e-02   8.560e-01    -0.131
	MgX2              4.034e-03   8.068e-03   1.345e-01    -0.130
	NaX               5.750e-04   5.750e-04   9.584e-03    -0.033

-----------------------------Solution composition------------------------------

	Elements           Molality       Moles

	Ca                1.900e-03   1.900e-03
	Mg                4.800e-04   4.800e-04
	Na                1.100e-03   1.100e-03

----------------------------Description of solution----------------------------

                                       pH  =   7.000      Charge balance
                                       pe  =   4.000      Adjusted to redox equilibrium
      Specific Conductance (µS/cm,  25°C)  = 290
                          Density (g/cm³)  =   1.00164
                               Volume (L)  =   0.99848
                        Activity of water  =   1.000
                 Ionic strength (mol/kgw)  =   5.310e-03
                       Mass of water (kg)  =   1.000e+00
                 Total alkalinity (eq/kg)  =   2.855e-08
                         Temperature (°C)  =  25.00
                           Pressure (atm)  = 100.00
                  Electrical balance (eq)  =   5.860e-03
 Percent error, 100*(Cat-|An|)/(Cat+|An|)  = 100.00
                               Iterations  =   0
                                  Total H  = 1.110124e+02
                                  Total O  = 5.550622e+01

-----------------------------Exchange composition------------------------------

X                6.000e-02 mol

	                               Equiv-    Equivalent      Log 
	Species             Moles      alents      Fraction     Gamma

	CaX2              2.568e-02   5.136e-02   8.561e-01    -0.132
	MgX2              4.035e-03   8.070e-03   1.345e-01    -0.131
	NaX               5.665e-04   5.665e-04   9.441e-03    -0.034

-----------------------------Solution composition------------------------------

	Elements           Molality       Moles

	Ca                1.897e-03   1.897e-03
	Mg                4.789e-04   4.789e-04
	Na                1.109e-03   1.109e-03

----------------------------Description of solution----------------------------

                                       pH  =   6.911      Charge balance
                                       pe  =  -1.467      Adjusted to redox equilibrium
      Specific Conductance (µS/cm,  30°C)  = 321
                          Density (g/cm³)  =   1.00018
                               Volume (L)  =   0.99994
                        Activity of water  =   1.000
                 Ionic strength (mol/kgw)  =   5.306e-03
                       Mass of water (kg)  =   1.000e+00
                 Total alkalinity (eq/kg)  =   2.855e-08
                         Temperature (°C)  =  30.00
                           Pressure (atm)  = 100.00
                  Electrical balance (eq)  =   5.860e-03
 Percent error, 100*(Cat-|An|)/(Cat+|An|)  = 100.00
                               Iterations  =   8
                                  Total H  = 1.110124e+02
                                  Total O  = 5.550622e+01

-----------------------------Exchange composition------------------------------

X                6.000e-02 mol

	                               Equiv-    Equivalent      Log 
	Species             Moles      alents      Fraction     Gamma

	CaX2              2.568e-02   5.137e-02   8.562e-01    -0.133
	MgX2              4.036e-03   8.072e-03   1.345e-01    -0.132
	NaX               5.583e-04   5.583e-04   9.304e-03    -0.034

-----------------------------Solution composition------------------------------

	Elements           Molality       Moles

	Ca                1.894e-03   1.894e-03
	Mg                4.779e-04   4.779e-04
	Na                1.117e-03   1.117e-03

----------------------------Description of solution----------------------------

                                       pH  =   6.826      Charge balance
                                       pe  =  -1.424      Adjusted to redox equilibrium
      Specific Conductance (µS/cm,  35°C)  = 353
                          Density (g/cm³)  =   0.99851
                               Volume (L)  =   1.00160
                        Activity of water  =   1.000
                 Ionic strength (mol/kgw)  =   5.302e-03
                       Mass of water (kg)  =   1.000e+00
                 Total alkalinity (eq/kg)  =   2.855e-08
                         Temperature (°C)  =  35.00
                           Pressure (atm)  = 100.00
                  Electrical balance (eq)  =   5.860e-03
 Percent error, 100*(Cat-|An|)/(Cat+|An|)  =  99.99
                               Iterations  =   8
                                  Total H  = 1.110124e+02
                                  Total O  = 5.550622e+01

-----------------------------Exchange composition------------------------------

X                6.000e-02 mol

	                               Equiv-    Equivalent      Log 
	Species             Moles      alents      Fraction     Gamma

	CaX2              2.569e-02   5.138e-02   8.563e-01    -0.135
	MgX2              4.037e-03   8.074e-03   1.346e-01    -0.133
	NaX               5.503e-04   5.503e-04   9.172e-03    -0.034

-----------------------------Solution composition------------------------------

	Elements           Molality       Moles

	Ca                1.891e-03   1.891e-03
	Mg                4.768e-04   4.768e-04
	Na                1.125e-03   1.125e-03

----------------------------Description of solution----------------------------

                                       pH  =   6.746      Charge balance
                                       pe  =  -1.389      Adjusted to redox equilibrium
      Specific Conductance (µS/cm,  40°C)  = 386
                          Density (g/cm³)  =   0.99667
                               Volume (L)  =   1.00346
                        Activity of water  =   1.000
                 Ionic strength (mol/kgw)  =   5.298e-03
                       Mass of water (kg)  =   1.000e+00
                 Total alkalinity (eq/kg)  =   2.855e-08
                         Temperature (°C)  =  40.00
                           Pressure (atm)  = 100.00
                  Electrical balance (eq)  =   5.860e-03
 Percent error, 100*(Cat-|An|)/(Cat+|An|)  =  99.99
                               Iterations  =   8
                                  Total H  = 1.110124e+02
                                  Total O  = 5.550622e+01

-----------------------------Exchange composition------------------------------

X                6.000e-02 mol

	                               Equiv-    Equivalent      Log 
	Species             Moles      alents      Fraction     Gamma

	CaX2              2.569e-02   5.138e-02   8.564e-01    -0.136
	MgX2              4.038e-03   8.076e-03   1.346e-01    -0.134
	NaX               5.427e-04   5.427e-04   9.045e-03    -0.034

-----------------------------Solution composition------------------------------

	Elements           Molality       Moles

	Ca                1.888e-03   1.888e-03
	Mg                4.758e-04   4.758e-04
	Na                1.132e-03   1.132e-03

----------------------------Description of solution----------------------------

                                       pH  =   6.671      Charge balance
                                       pe  =  -1.197      Adjusted to redox equilibrium
      Specific Conductance (µS/cm,  45°C)  = 420
                          Density (g/cm³)  =   0.99465
                               Volume (L)  =   1.00550
                        Activity of water  =   1.000
                 Ionic strength (mol/kgw)  =   5.294e-03
                       Mass of water (kg)  =   1.000e+00
                 Total alkalinity (eq/kg)  =   2.855e-08
                         Temperature (°C)  =  45.00
                           Pressure (atm)  = 100.00
                  Electrical balance (eq)  =   5.860e-03
 Percent error, 100*(Cat-|An|)/(Cat+|An|)  =  99.99
                               Iterations  =   9
                                  Total H  = 1.110124e+02
                                  Total O  = 5.550622e+01

-----------------------------Exchange composition------------------------------

X                6.000e-02 mol

	                               Equiv-    Equivalent      Log 
	Species             Moles      alents      Fraction     Gamma

	CaX2              2.569e-02   5.139e-02   8.564e-01    -0.137
	MgX2              4.039e-03   8.078e-03   1.346e-01    -0.135
	NaX               5.353e-04   5.353e-04   8.922e-03    -0.035

-----------------------------Solution composition------------------------------

	Elements           Molality       Moles

	Ca                1.885e-03   1.885e-03
	Mg                4.747e-04   4.747e-04
	Na                1.140e-03   1.140e-03

----------------------------Description of solution----------------------------

                                       pH  =   6.599      Charge balance
                                       pe  =  -1.165      Adjusted to redox equilibrium
      Specific Conductance (µS/cm,  50°C)  = 454
                          Density (g/cm³)  =   0.99246
                               Volume (L)  =   1.00771
                        Activity of water  =   1.000
                 Ionic strength (mol/kgw)  =   5.290e-03
                       Mass of water (kg)  =   1.000e+00
                 Total alkalinity (eq/kg)  =   2.855e-08
                         Temperature (°C)  =  50.00
                           Pressure (atm)  = 100.00
                  Electrical balance (eq)  =   5.860e-03
 Percent error, 100*(Cat-|An|)/(Cat+|An|)  =  99.99
                               Iterations  =   9
                                  Total H  = 1.110124e+02
                                  Total O  = 5.550622e+01

-----------------------------Exchange composition------------------------------

X                6.000e-02 mol

	                               Equiv-    Equivalent      Log 
	Species             Moles      alents      Fraction     Gamma

	CaX2              2.570e-02   5.139e-02   8.565e-01    -0.138
	MgX2              4.040e-03   8.080e-03   1.347e-01    -0.137
	NaX               5.282e-04   5.282e-04   8.804e-03    -0.035

-----------------------------Solution composition------------------------------

	Elements           Molality       Moles

	Ca                1.883e-03   1.883e-03
	Mg                4.737e-04   4.737e-04
	Na                1.147e-03   1.147e-03

----------------------------Description of solution----------------------------

                                       pH  =   6.530      Charge balance
                                       pe  =  -1.141      Adjusted to redox equilibrium
      Specific Conductance (µS/cm,  55°C)  = 490
                          Density (g/cm³)  =   0.99013
                               Volume (L)  =   1.01008
                        Activity of water  =   1.000
                 Ionic strength (mol/kgw)  =   5.287e-03
                       Mass of water (kg)  =   1.000e+00
                 Total alkalinity (eq/kg)  =   2.855e-08
                         Temperature (°C)  =  55.00
                           Pressure (atm)  = 100.00
                  Electrical balance (eq)  =   5.860e-03
 Percent error, 100*(Cat-|An|)/(Cat+|An|)  =  99.99
                               Iterations  =   9
                                  Total H  = 1.110124e+02
                                  Total O  = 5.550622e+01

-----------------------------Exchange composition------------------------------

X                6.000e-02 mol

	                               Equiv-    Equivalent      Log 
	Species             Moles      alents      Fraction     Gamma

	CaX2              2.570e-02   5.140e-02   8.566e-01    -0.140
	MgX2              4.041e-03   8.082e-03   1.347e-01    -0.138
	NaX               5.214e-04   5.214e-04   8.690e-03    -0.035

-----------------------------Solution composition------------------------------

	Elements           Molality       Moles

	Ca                1.880e-03   1.880e-03
	Mg                4.728e-04   4.728e-04
	Na                1.154e-03   1.154e-03

----------------------------Description of solution----------------------------

                                       pH  =   6.465      Charge balance
                                       pe  =  -1.118      Adjusted to redox equilibrium
      Specific Conductance (µS/cm,  60°C)  = 526
                          Density (g/cm³)  =   0.98765
                               Volume (L)  =   1.01262
                        Activity of water  =   1.000
                 Ionic strength (mol/kgw)  =   5.283e-03
                       Mass of water (kg)  =   1.000e+00
                 Total alkalinity (eq/kg)  =   2.855e-08
                         Temperature (°C)  =  60.00
                           Pressure (atm)  = 100.00
                  Electrical balance (eq)  =   5.860e-03
 Percent error, 100*(Cat-|An|)/(Cat+|An|)  =  99.99
                               Iterations  =   9
                                  Total H  = 1.110124e+02
                                  Total O  = 5.550622e+01

-----------------------------Exchange composition------------------------------

X                6.000e-02 mol

	                               Equiv-    Equivalent      Log 
	Species             Moles      alents      Fraction     Gamma

	CaX2              2.570e-02   5.140e-02   8.567e-01    -0.141
	MgX2              4.042e-03   8.084e-03   1.347e-01    -0.140
	NaX               5.148e-04   5.148e-04   8.579e-03    -0.036

-----------------------------Solution composition------------------------------

	Elements           Molality       Moles

	Ca                1.878e-03   1.878e-03
	Mg                4.718e-04   4.718e-04
	Na                1.160e-03   1.160e-03

----------------------------Description of solution----------------------------

                                       pH  =   6.402      Charge balance
                                       pe  =  -1.104      Adjusted to redox equilibrium
      Specific Conductance (µS/cm,  65°C)  = 562
                          Density (g/cm³)  =   0.98503
                               Volume (L)  =   1.01531
                        Activity of water  =   1.000
                 Ionic strength (mol/kgw)  =   5.280e-03
                       Mass of water (kg)  =   1.000e+00
                 Total alkalinity (eq/kg)  =   2.855e-08
                         Temperature (°C)  =  65.00
                           Pressure (atm)  = 100.00
                  Electrical balance (eq)  =   5.860e-03
 Percent error, 100*(Cat-|An|)/(Cat+|An|)  =  99.99
                               Iterations  =   9
                                  Total H  = 1.110124e+02
                                  Total O  = 5.550622e+01

-----------------------------Exchange composition------------------------------

X                6.000e-02 mol

	                               Equiv-    Equivalent      Log 
	Species             Moles      alents      Fraction     Gamma

	CaX2              2.570e-02   5.141e-02   8.568e-01    -0.143
	MgX2              4.043e-03   8.086e-03   1.348e-01    -0.141
	NaX               5.084e-04   5.084e-04   8.473e-03    -0.036

-----------------------------Solution composition------------------------------

	Elements           Molality       Moles

	Ca                1.876e-03   1.876e-03
	Mg                4.709e-04   4.709e-04
	Na                1.167e-03   1.167e-03

----------------------------Description of solution----------------------------

                                       pH  =   6.342      Charge balance
                                       pe  =  -1.093      Adjusted to redox equilibrium
      Specific Conductance (µS/cm,  70°C)  = 599
                          Density (g/cm³)  =   0.98228
                               Volume (L)  =   1.01816
                        Activity of water  =   1.000
                 Ionic strength (mol/kgw)  =   5.277e-03
                       Mass of water (kg)  =   1.000e+00
                 Total alkalinity (eq/kg)  =   2.855e-08
                         Temperature (°C)  =  70.00
                           Pressure (atm)  = 100.00
                  Electrical balance (eq)  =   5.860e-03
 Percent error, 100*(Cat-|An|)/(Cat+|An|)  =  99.99
                               Iterations  =   9
                                  Total H  = 1.110124e+02
                                  Total O  = 5.550622e+01

-----------------------------Exchange composition------------------------------

X                6.000e-02 mol

	                               Equiv-    Equivalent      Log 
	Species             Moles      alents      Fraction     Gamma

	CaX2              2.571e-02   5.141e-02   8.568e-01    -0.144
	MgX2              4.044e-03   8.088e-03   1.348e-01    -0.143
	NaX               5.022e-04   5.022e-04   8.371e-03    -0.037

-----------------------------Solution composition------------------------------

	Elements           Molality       Moles

	Ca                1.874e-03   1.874e-03
	Mg                4.700e-04   4.700e-04
	Na                1.173e-03   1.173e-03

----------------------------Description of solution----------------------------

                                       pH  =   6.285      Charge balance
                                       pe  =  -0.910      Adjusted to redox equilibrium
      Specific Conductance (µS/cm,  75°C)  = 637
                          Density (g/cm³)  =   0.97940
                               Volume (L)  =   1.02115
                        Activity of water  =   1.000
                 Ionic strength (mol/kgw)  =   5.274e-03
                       Mass of water (kg)  =   1.000e+00
                 Total alkalinity (eq/kg)  =   2.855e-08
                         Temperature (°C)  =  75.00
                           Pressure (atm)  = 100.00
                  Electrical balance (eq)  =   5.860e-03
 Percent error, 100*(Cat-|An|)/(Cat+|An|)  =  99.98
                               Iterations  =  10
                                  Total H  = 1.110124e+02
                                  Total O  = 5.550622e+01

-----------------------------Exchange composition------------------------------

X                6.000e-02 mol

	                               Equiv-    Equivalent      Log 
	Species             Moles      alents      Fraction     Gamma

	CaX2              2.571e-02   5.141e-02   8.569e-01    -0.146
	MgX2              4.045e-03   8.089e-03   1.348e-01    -0.144
	NaX               4.963e-04   4.963e-04   8.272e-03    -0.037

-----------------------------Solution composition------------------------------

	Elements           Molality       Moles

	Ca                1.872e-03   1.872e-03
	Mg                4.691e-04   4.691e-04
	Na                1.179e-03   1.179e-03

----------------------------Description of solution----------------------------

                                       pH  =   6.230      Charge balance
                                       pe  =  -0.862      Adjusted to redox equilibrium
      Specific Conductance (µS/cm,  80°C)  = 674
                          Density (g/cm³)  =   0.97640
                               Volume (L)  =   1.02429
                        Activity of water  =   1.000
                 Ionic strength (mol/kgw)  =   5.271e-03
                       Mass of water (kg)  =   1.000e+00
                 Total alkalinity (eq/kg)  =   2.855e-08
                         Temperature (°C)  =  80.00
                           Pressure (atm)  = 100.00
                  Electrical balance (eq)  =   5.860e-03
 Percent error, 100*(Cat-|An|)/(Cat+|An|)  =  99.98
                               Iterations  =  10
                                  Total H  = 1.110124e+02
                                  Total O  = 5.550622e+01

-----------------------------Exchange composition------------------------------

X                6.000e-02 mol

	                               Equiv-    Equivalent      Log 
	Species             Moles      alents      Fraction     Gamma

	CaX2              2.571e-02   5.142e-02   8.570e-01    -0.148
	MgX2              4.045e-03   8.091e-03   1.348e-01    -0.146
	NaX               4.906e-04   4.906e-04   8.176e-03    -0.037

-----------------------------Solution composition------------------------------

	Elements           Molality       Moles

	Ca                1.869e-03   1.869e-03
	Mg                4.683e-04   4.683e-04
	Na                1.185e-03   1.185e-03

----------------------------Description of solution----------------------------

                                       pH  =   6.177      Charge balance
                                       pe  =  -0.688      Adjusted to redox equilibrium
      Specific Conductance (µS/cm,  85°C)  = 712
                          Density (g/cm³)  =   0.97327
                               Volume (L)  =   1.02758
                        Activity of water  =   1.000
                 Ionic strength (mol/kgw)  =   5.268e-03
                       Mass of water (kg)  =   1.000e+00
                 Total alkalinity (eq/kg)  =   2.855e-08
                         Temperature (°C)  =  85.00
                           Pressure (atm)  = 100.00
                  Electrical balance (eq)  =   5.860e-03
 Percent error, 100*(Cat-|An|)/(Cat+|An|)  =  99.98
                               Iterations  =  11
                                  Total H  = 1.110124e+02
                                  Total O  = 5.550622e+01

-----------------------------Exchange composition------------------------------

X                6.000e-02 mol

	                               Equiv-    Equivalent      Log 
	Species             Moles      alents      Fraction     Gamma

	CaX2              2.571e-02   5.142e-02   8.570e-01    -0.149
	MgX2              4.046e-03   8.093e-03   1.349e-01    -0.148
	NaX               4.850e-04   4.850e-04   8.084e-03    -0.038

-----------------------------Solution composition------------------------------

	Elements           Molality       Moles

	Ca                1.868e-03   1.868e-03
	Mg                4.675e-04   4.675e-04
	Na                1.190e-03   1.190e-03

----------------------------Description of solution----------------------------

                                       pH  =   6.126      Charge balance
                                       pe  =  -0.639      Adjusted to redox equilibrium
      Specific Conductance (µS/cm,  90°C)  = 751
                          Density (g/cm³)  =   0.97003
                               Volume (L)  =   1.03101
                        Activity of water  =   1.000
                 Ionic strength (mol/kgw)  =   5.265e-03
                       Mass of water (kg)  =   1.000e+00
                 Total alkalinity (eq/kg)  =   2.855e-08
                         Temperature (°C)  =  90.00
                           Pressure (atm)  = 100.00
                  Electrical balance (eq)  =   5.860e-03
 Percent error, 100*(Cat-|An|)/(Cat+|An|)  =  99.98
                               Iterations  =  11
                                  Total H  = 1.110124e+02
                                  Total O  = 5.550622e+01

----------------------------------
End of Run after 0.088062 Seconds.
----------------------------------

