   Input file: ../examples/Ex3_Exchange_Mix
  Output file: ../examples/Ex3_Exchange_Mix.out
Database file: ../database/phreeqc.dat

------------------
Reading data base.
------------------

	SOLUTION_MASTER_SPECIES
	SOLUTION_SPECIES
	PHASES
	EXCHANGE_MASTER_SPECIES
	EXCHANGE_SPECIES
	SURFACE_MASTER_SPECIES
	SURFACE_SPECIES
	RATES
	END
------------------------------------
Reading input data for simulation 1.
------------------------------------

	DATABASE ../database/phreeqc.dat
	TITLE Exchange with mix
	EXCHANGE 1
	CaX2 0.4065 # exchangeable Ca and K in mol
	KX 0.1870
	SOLUTION 1
	Na 1.2
	 Cl 1.2 charge # Na in solution, exchanges for K and Ca
	MIX 1
	 1 1e-9 # ...Take 1e-9 of solution 1 = 1 Î¼g water
	END
-----
TITLE
-----

 Exchange with mix

-------------------------------------------
Beginning of initial solution calculations.
-------------------------------------------

Initial solution 1.	

-----------------------------Solution composition------------------------------

	Elements           Molality       Moles

	Cl                1.200e-03   1.200e-03  Charge balance
	Na                1.200e-03   1.200e-03

----------------------------Description of solution----------------------------

                                       pH  =   7.000    
                                       pe  =   4.000    
      Specific Conductance (µS/cm,  25°C)  = 147
                          Density (g/cm³)  =   0.99709
                               Volume (L)  =   1.00299
                        Activity of water  =   1.000
                 Ionic strength (mol/kgw)  =   1.200e-03
                       Mass of water (kg)  =   1.000e+00
                 Total alkalinity (eq/kg)  =   1.491e-09
                         Temperature (°C)  =  25.00
                  Electrical balance (eq)  =  -9.741e-12
 Percent error, 100*(Cat-|An|)/(Cat+|An|)  =  -0.00
                               Iterations  =   8
                                  Total H  = 1.110124e+02
                                  Total O  = 5.550622e+01

----------------------------Distribution of species----------------------------

                                               Log       Log       Log    mole V
   Species          Molality    Activity  Molality  Activity     Gamma   cm³/mol

   OH-             1.053e-07   1.012e-07    -6.978    -6.995    -0.017     -4.10
   H+              1.038e-07   1.000e-07    -6.984    -7.000    -0.016      0.00
   H2O             5.551e+01   1.000e+00     1.744    -0.000     0.000     18.07
Cl            1.200e-03
   Cl-             1.200e-03   1.154e-03    -2.921    -2.938    -0.017     18.08
H(0)          1.416e-25
   H2              7.078e-26   7.079e-26   -25.150   -25.150     0.000     28.61
Na            1.200e-03
   Na+             1.200e-03   1.155e-03    -2.921    -2.938    -0.017     -1.47
   NaOH            1.168e-20   1.168e-20   -19.932   -19.932     0.000     (0)  
O(0)          0.000e+00
   O2              0.000e+00   0.000e+00   -42.080   -42.080     0.000     30.40

------------------------------Saturation indices-------------------------------

  Phase               SI** log IAP   log K(298 K,   1 atm)

  H2(g)           -22.05    -25.15   -3.10  H2
  H2O(g)           -1.50     -0.00    1.50  H2O
  Halite           -7.45     -5.88    1.57  NaCl
  O2(g)           -39.19    -42.08   -2.89  O2

**For a gas, SI = log10(fugacity). Fugacity = pressure * phi / 1 atm.
  For ideal gases, phi = 1.

-----------------------------------------
Beginning of batch-reaction calculations.
-----------------------------------------

Reaction step 1.

Using mix 1.	
Using exchange 1.	

Mixture 1.	

	  1.000e-09 Solution 1	                                                       

-----------------------------Exchange composition------------------------------

X                1.000e+00 mol

	                               Equiv-    Equivalent      Log 
	Species             Moles      alents      Fraction     Gamma

	CaX2              4.065e-01   8.130e-01   8.130e-01    -0.069
	KX                1.870e-01   1.870e-01   1.870e-01    -0.018
	NaX               1.200e-12   1.200e-12   1.200e-12    -0.017

-----------------------------Solution composition------------------------------

	Elements           Molality       Moles

	Ca                9.458e-05   9.458e-14
	Cl                1.200e-03   1.200e-12
	K                 1.011e-03   1.011e-12
	Na                3.251e-14   3.251e-23

----------------------------Description of solution----------------------------

                                       pH  =   7.000      Charge balance
                                       pe  =  -3.525      Adjusted to redox equilibrium
      Specific Conductance (µS/cm,  25°C)  = 171
                          Density (g/cm³)  =   0.99710
                               Volume (L)  =   0.00000
                        Activity of water  =   1.000
                 Ionic strength (mol/kgw)  =   1.295e-03
                       Mass of water (kg)  =   1.000e-09
                 Total alkalinity (eq/kg)  =   1.649e-09
                         Temperature (°C)  =  25.00
                  Electrical balance (eq)  =  -9.795e-21
 Percent error, 100*(Cat-|An|)/(Cat+|An|)  =  -0.00
                               Iterations  =  20
                                  Total H  = 1.110124e-07
                                  Total O  = 5.550622e-08

----------------------------Distribution of species----------------------------

                                               Log       Log       Log    mole V
   Species          Molality    Activity  Molality  Activity     Gamma   cm³/mol

   OH-             1.054e-07   1.012e-07    -6.977    -6.995    -0.018     -4.10
   H+              1.039e-07   1.000e-07    -6.983    -7.000    -0.017      0.00
   H2O             5.551e+01   1.000e+00     1.744    -0.000     0.000     18.07
Ca            9.458e-05
   Ca+2            9.458e-05   8.066e-05    -4.024    -4.093    -0.069    -18.13
   CaOH+           1.394e-10   1.339e-10    -9.856    -9.873    -0.018     (0)  
Cl            1.200e-03
   Cl-             1.200e-03   1.152e-03    -2.921    -2.938    -0.018     18.08
H(0)          1.586e-10
   H2              7.932e-11   7.934e-11   -10.101   -10.100     0.000     28.61
K             1.011e-03
   K+              1.011e-03   9.707e-04    -2.995    -3.013    -0.018      9.01
Na            3.251e-14
   Na+             3.251e-14   3.123e-14   -13.488   -13.505    -0.017     -1.47
   NaOH            3.160e-31   3.161e-31   -30.500   -30.500     0.000     (0)  
O(0)          0.000e+00
   O2              0.000e+00   0.000e+00   -72.179   -72.179     0.000     30.40

------------------------------Saturation indices-------------------------------

  Phase               SI** log IAP   log K(298 K,   1 atm)

  H2(g)            -7.00    -10.10   -3.10  H2
  H2O(g)           -1.50     -0.00    1.50  H2O
  Halite          -18.01    -16.44    1.57  NaCl
  O2(g)           -69.29    -72.18   -2.89  O2
  Sylvite          -6.85     -5.95    0.90  KCl

**For a gas, SI = log10(fugacity). Fugacity = pressure * phi / 1 atm.
  For ideal gases, phi = 1.

------------------
End of simulation.
------------------

------------------------------------
Reading input data for simulation 2.
------------------------------------

	PRINT
	reset false
----------------------------------
End of Run after 0.040223 Seconds.
----------------------------------

