   Input file: ../examples/Ex_Exchange_Rothmund_Kornfeld
  Output file: ../examples/Ex_Exchange_Rothmund_Kornfeld.out
Database file: ../database/phreeqc.dat

------------------
Reading data base.
------------------

	SOLUTION_MASTER_SPECIES
	SOLUTION_SPECIES
	PHASES
	EXCHANGE_MASTER_SPECIES
	EXCHANGE_SPECIES
	SURFACE_MASTER_SPECIES
	SURFACE_SPECIES
	RATES
	END
------------------------------------
Reading input data for simulation 1.
------------------------------------

	DATABASE ../database/phreeqc.dat
	TITLE Ion Exchange with Rothmund-Kornfeld convention
	EXCHANGE_SPECIES
	Na+ + X- = NaX
	 log_k 0
	gamma 4.0 0.075
	0.789K+ + NaX = KX + 0.789Na+
	 log_k 0.705
	 no_check
	 mole_balance KX
	gamma 3.5 0.015
	0.618Ca+2 + 2KX = CaX2 + 1.236K+
	 log_k -0.281
	 no_check
	 mole_balance CaX2
	gamma 5.0 0.165
	0.931Ca+2 + 2NaX = CaX2 + 1.862Na+
	 log_k 1.135
	 no_check
	 mole_balance CaX2
	gamma 5.0 0.165
	SOLUTION 1
	K 100
	Ca 50
	EXCHANGE 1
	NaX 0.417
	PRINT
	reset true
	user_print true
	totals true
	exchange true
	END
-----
TITLE
-----

 Ion Exchange with Rothmund-Kornfeld convention

-------------------------------------------
Beginning of initial solution calculations.
-------------------------------------------

Initial solution 1.	

-----------------------------Solution composition------------------------------

	Elements           Molality       Moles

	Ca                5.000e-02   5.000e-02
	K                 1.000e-01   1.000e-01

----------------------------Description of solution----------------------------

                                       pH  =   7.000    
                                       pe  =   4.000    
      Specific Conductance (µS/cm,  25°C)  = 10362
                          Density (g/cm³)  =   1.00288
                               Volume (L)  =   1.00303
                        Activity of water  =   0.997
                 Ionic strength (mol/kgw)  =   1.500e-01
                       Mass of water (kg)  =   1.000e+00
                 Total alkalinity (eq/kg)  =   5.262e-08
                         Temperature (°C)  =  25.00
                  Electrical balance (eq)  =   2.000e-01
 Percent error, 100*(Cat-|An|)/(Cat+|An|)  = 100.00
                               Iterations  =   4
                                  Total H  = 1.110124e+02
                                  Total O  = 5.550622e+01

----------------------------Distribution of species----------------------------

                                               Log       Log       Log    mole V
   Species          Molality    Activity  Molality  Activity     Gamma   cm³/mol

   OH-             1.383e-07   1.010e-07    -6.859    -6.996    -0.137     -3.61
   H+              1.236e-07   1.000e-07    -6.908    -7.000    -0.092      0.00
   H2O             5.551e+01   9.974e-01     1.744    -0.001     0.000     18.07
Ca            5.000e-02
   Ca+2            5.000e-02   1.741e-02    -1.301    -1.759    -0.458    -17.31
   CaOH+           3.794e-08   2.882e-08    -7.421    -7.540    -0.119     (0)  
H(0)          1.368e-25
   H2              6.839e-26   7.079e-26   -25.165   -25.150     0.015     28.61
K             1.000e-01
   K+              1.000e-01   7.338e-02    -1.000    -1.134    -0.134      9.30
O(0)          0.000e+00
   O2              0.000e+00   0.000e+00   -42.097   -42.082     0.015     30.40

------------------------------Saturation indices-------------------------------

  Phase               SI** log IAP   log K(298 K,   1 atm)

  H2(g)           -22.05    -25.15   -3.10  H2
  H2O(g)           -1.50     -0.00    1.50  H2O
  O2(g)           -39.19    -42.08   -2.89  O2

**For a gas, SI = log10(fugacity). Fugacity = pressure * phi / 1 atm.
  For ideal gases, phi = 1.

-----------------------------------------
Beginning of batch-reaction calculations.
-----------------------------------------

Reaction step 1.

Using solution 1.	
Using exchange 1.	

-----------------------------Exchange composition------------------------------

X                4.170e-01 mol

	                               Equiv-    Equivalent      Log 
	Species             Moles      alents      Fraction     Gamma

	NaX               2.336e-01   2.336e-01   5.602e-01    -0.108
	KX                9.075e-02   9.075e-02   2.176e-01    -0.025
	CaX2              4.633e-02   9.266e-02   2.222e-01    -0.012

-----------------------------Solution composition------------------------------

	Elements           Molality       Moles

	Ca                3.670e-03   3.670e-03
	K                 9.253e-03   9.253e-03
	Na                1.834e-01   1.834e-01

----------------------------Description of solution----------------------------

                                       pH  =   7.064      Charge balance
                                       pe  =  11.208      Adjusted to redox equilibrium
      Specific Conductance (µS/cm,  25°C)  = 8494
                          Density (g/cm³)  =   1.00193
                               Volume (L)  =   1.00279
                        Activity of water  =   0.997
                 Ionic strength (mol/kgw)  =   1.037e-01
                       Mass of water (kg)  =   1.000e+00
                 Total alkalinity (eq/kg)  =   5.262e-08
                         Temperature (°C)  =  25.00
                  Electrical balance (eq)  =   2.000e-01
 Percent error, 100*(Cat-|An|)/(Cat+|An|)  = 100.00
                               Iterations  =  11
                                  Total H  = 1.110124e+02
                                  Total O  = 5.550622e+01

----------------------------Distribution of species----------------------------

                                               Log       Log       Log    mole V
   Species          Molality    Activity  Molality  Activity     Gamma   cm³/mol

   OH-             1.539e-07   1.168e-07    -6.813    -6.932    -0.120     -3.72
   H+              1.048e-07   8.635e-08    -6.980    -7.064    -0.084      0.00
   H2O             5.551e+01   9.967e-01     1.744    -0.001     0.000     18.07
Ca            3.670e-03
   Ca+2            3.670e-03   1.419e-03    -2.435    -2.848    -0.413    -17.42
   CaOH+           3.489e-09   2.719e-09    -8.457    -8.566    -0.108     (0)  
H(0)          3.954e-40
   H2              1.977e-40   2.025e-40   -39.704   -39.694     0.010     28.61
K             9.253e-03
   K+              9.253e-03   7.047e-03    -2.034    -2.152    -0.118      9.25
Na            1.834e-01
   Na+             1.834e-01   1.436e-01    -0.737    -0.843    -0.106     -1.08
   NaOH            1.638e-18   1.678e-18   -17.786   -17.775     0.010     (0)  
O(0)          1.973e-13
   O2              9.864e-14   1.010e-13   -13.006   -12.996     0.010     30.40

------------------------------Saturation indices-------------------------------

  Phase               SI** log IAP   log K(298 K,   1 atm)

  H2(g)           -36.59    -39.69   -3.10  H2
  H2O(g)           -1.50     -0.00    1.50  H2O
  O2(g)           -10.10    -13.00   -2.89  O2

**For a gas, SI = log10(fugacity). Fugacity = pressure * phi / 1 atm.
  For ideal gases, phi = 1.

------------------
End of simulation.
------------------

------------------------------------
Reading input data for simulation 2.
------------------------------------

---------------------------------
End of Run after 0.03918 Seconds.
---------------------------------

