   Input file: ../examples/Ex_Exchange_CaX2_KX_Isotherm
  Output file: ../examples/Ex_Exchange_CaX2_KX_Isotherm.out
Database file: ../database/phreeqc.dat

------------------
Reading data base.
------------------

	SOLUTION_MASTER_SPECIES
	SOLUTION_SPECIES
	PHASES
	EXCHANGE_MASTER_SPECIES
	EXCHANGE_SPECIES
	SURFACE_MASTER_SPECIES
	SURFACE_SPECIES
	RATES
	END
------------------------------------
Reading input data for simulation 1.
------------------------------------

	DATABASE ../database/phreeqc.dat
	TITLE Ion Exchange with Reactions and Isotherm plots
	SOLUTION 1
	K 100 # 100 mmol K+ / kg H2O
	EXCHANGE 1
	KX 0.4 # 400 mmol KX, total K =500 mmol
	REACTION
	 K -1 Ca 0.5
	 0.5 in 20 steps
	PRINT 
	reset true
	totals true
	exchange true
	SELECTED_OUTPUT
	file   ../out/ion-exchange-isotherms-cax2-kx-reaction.txt
	totals K Ca
	ionic_strength
	molalities K+ Ca+2 KX CaX2
	END
-----
TITLE
-----

 Ion Exchange with Reactions and Isotherm plots

-------------------------------------------
Beginning of initial solution calculations.
-------------------------------------------

Initial solution 1.	

-----------------------------Solution composition------------------------------

	Elements           Molality       Moles

	K                 1.000e-01   1.000e-01

----------------------------Description of solution----------------------------

                                       pH  =   7.000    
                                       pe  =   4.000    
      Specific Conductance (µS/cm,  25°C)  = 6535
                          Density (g/cm³)  =   1.00003
                               Volume (L)  =   1.00388
                        Activity of water  =   0.998
                 Ionic strength (mol/kgw)  =   5.000e-02
                       Mass of water (kg)  =   1.000e+00
                 Total alkalinity (eq/kg)  =   7.391e-09
                         Temperature (°C)  =  25.00
                  Electrical balance (eq)  =   1.000e-01
 Percent error, 100*(Cat-|An|)/(Cat+|An|)  = 100.00
                               Iterations  =   4
                                  Total H  = 1.110124e+02
                                  Total O  = 5.550622e+01

----------------------------Distribution of species----------------------------

                                               Log       Log       Log    mole V
   Species          Molality    Activity  Molality  Activity     Gamma   cm³/mol

   OH-             1.245e-07   1.010e-07    -6.905    -6.995    -0.091     -3.87
   H+              1.171e-07   1.000e-07    -6.931    -7.000    -0.069      0.00
   H2O             5.551e+01   9.983e-01     1.744    -0.001     0.000     18.07
H(0)          1.400e-25
   H2              6.998e-26   7.079e-26   -25.155   -25.150     0.005     28.61
K             1.000e-01
   K+              1.000e-01   8.129e-02    -1.000    -1.090    -0.090      9.17
O(0)          0.000e+00
   O2              0.000e+00   0.000e+00   -42.086   -42.081     0.005     30.40

------------------------------Saturation indices-------------------------------

  Phase               SI** log IAP   log K(298 K,   1 atm)

  H2(g)           -22.05    -25.15   -3.10  H2
  H2O(g)           -1.50     -0.00    1.50  H2O
  O2(g)           -39.19    -42.08   -2.89  O2

**For a gas, SI = log10(fugacity). Fugacity = pressure * phi / 1 atm.
  For ideal gases, phi = 1.

-----------------------------------------
Beginning of batch-reaction calculations.
-----------------------------------------

Reaction step 1.

Using solution 1.	
Using exchange 1.	
Using reaction 1.	

Reaction 1.	

	  2.500e-02 moles of the following reaction have been added:

	                 Relative
	Reactant            moles

	Ca                   0.50000
	K                   -1.00000

	                 Relative
	Element             moles
	Ca                   0.50000
	K                   -1.00000

-----------------------------Exchange composition------------------------------

X                4.000e-01 mol

	                               Equiv-    Equivalent      Log 
	Species             Moles      alents      Fraction     Gamma

	KX                3.792e-01   3.792e-01   9.481e-01    -0.091
	CaX2              1.039e-02   2.078e-02   5.195e-02    -0.330

-----------------------------Solution composition------------------------------

	Elements           Molality       Moles

	Ca                2.111e-03   2.111e-03
	K                 9.578e-02   9.578e-02

----------------------------Description of solution----------------------------

                                       pH  =   6.996      Charge balance
                                       pe  =  10.929      Adjusted to redox equilibrium
      Specific Conductance (µS/cm,  25°C)  = 6438
                          Density (g/cm³)  =   1.00002
                               Volume (L)  =   1.00381
                        Activity of water  =   0.998
                 Ionic strength (mol/kgw)  =   5.211e-02
                       Mass of water (kg)  =   1.000e+00
                 Total alkalinity (eq/kg)  =   7.391e-09
                         Temperature (°C)  =  25.00
                  Electrical balance (eq)  =   1.000e-01
 Percent error, 100*(Cat-|An|)/(Cat+|An|)  = 100.00
                               Iterations  =  14
                                  Total H  = 1.110124e+02
                                  Total O  = 5.550622e+01

----------------------------Distribution of species----------------------------

                                               Log       Log       Log    mole V
   Species          Molality    Activity  Molality  Activity     Gamma   cm³/mol

   OH-             1.238e-07   1.001e-07    -6.907    -6.999    -0.092     -3.87
   H+              1.184e-07   1.009e-07    -6.927    -6.996    -0.070      0.00
   H2O             5.551e+01   9.983e-01     1.744    -0.001     0.000     18.07
Ca            2.111e-03
   Ca+2            2.111e-03   9.870e-04    -2.676    -3.006    -0.330    -17.61
   CaOH+           1.979e-09   1.621e-09    -8.704    -8.790    -0.087     (0)  
H(0)          1.973e-39
   H2              9.867e-40   9.986e-40   -39.006   -39.001     0.005     28.61
K             9.578e-02
   K+              9.578e-02   7.759e-02    -1.019    -1.110    -0.091      9.17
O(0)          8.234e-15
   O2              4.117e-15   4.166e-15   -14.385   -14.380     0.005     30.40

------------------------------Saturation indices-------------------------------

  Phase               SI** log IAP   log K(298 K,   1 atm)

  H2(g)           -35.90    -39.00   -3.10  H2
  H2O(g)           -1.50     -0.00    1.50  H2O
  O2(g)           -11.49    -14.38   -2.89  O2

**For a gas, SI = log10(fugacity). Fugacity = pressure * phi / 1 atm.
  For ideal gases, phi = 1.

Reaction step 2.

Using solution 1.	
Using exchange 1.	
Using reaction 1.	

Reaction 1.	

	  5.000e-02 moles of the following reaction have been added:

	                 Relative
	Reactant            moles

	Ca                   0.50000
	K                   -1.00000

	                 Relative
	Element             moles
	Ca                   0.50000
	K                   -1.00000

-----------------------------Exchange composition------------------------------

X                4.000e-01 mol

	                               Equiv-    Equivalent      Log 
	Species             Moles      alents      Fraction     Gamma

	KX                3.586e-01   3.586e-01   8.964e-01    -0.093
	CaX2              2.071e-02   4.142e-02   1.036e-01    -0.335

-----------------------------Solution composition------------------------------

	Elements           Molality       Moles

	Ca                4.288e-03   4.288e-03
	K                 9.142e-02   9.142e-02

----------------------------Description of solution----------------------------

                                       pH  =   6.992      Charge balance
                                       pe  =  10.933      Adjusted to redox equilibrium
      Specific Conductance (µS/cm,  25°C)  = 6338
                          Density (g/cm³)  =   1.00002
                               Volume (L)  =   1.00373
                        Activity of water  =   0.998
                 Ionic strength (mol/kgw)  =   5.429e-02
                       Mass of water (kg)  =   1.000e+00
                 Total alkalinity (eq/kg)  =   7.391e-09
                         Temperature (°C)  =  25.00
                  Electrical balance (eq)  =   1.000e-01
 Percent error, 100*(Cat-|An|)/(Cat+|An|)  = 100.00
                               Iterations  =  14
                                  Total H  = 1.110124e+02
                                  Total O  = 5.550622e+01

----------------------------Distribution of species----------------------------

                                               Log       Log       Log    mole V
   Species          Molality    Activity  Molality  Activity     Gamma   cm³/mol

   OH-             1.232e-07   9.925e-08    -6.910    -7.003    -0.094     -3.86
   H+              1.197e-07   1.018e-07    -6.922    -6.992    -0.070      0.00
   H2O             5.551e+01   9.984e-01     1.744    -0.001     0.000     18.07
Ca            4.288e-03
   Ca+2            4.288e-03   1.984e-03    -2.368    -2.703    -0.335    -17.60
   CaOH+           3.954e-09   3.228e-09    -8.403    -8.491    -0.088     (0)  
H(0)          1.974e-39
   H2              9.872e-40   9.996e-40   -39.006   -39.000     0.005     28.61
K             9.142e-02
   K+              9.142e-02   7.382e-02    -1.039    -1.132    -0.093      9.18
O(0)          8.213e-15
   O2              4.107e-15   4.158e-15   -14.387   -14.381     0.005     30.40

------------------------------Saturation indices-------------------------------

  Phase               SI** log IAP   log K(298 K,   1 atm)

  H2(g)           -35.90    -39.00   -3.10  H2
  H2O(g)           -1.50     -0.00    1.50  H2O
  O2(g)           -11.49    -14.38   -2.89  O2

**For a gas, SI = log10(fugacity). Fugacity = pressure * phi / 1 atm.
  For ideal gases, phi = 1.

Reaction step 3.

Using solution 1.	
Using exchange 1.	
Using reaction 1.	

Reaction 1.	

	  7.500e-02 moles of the following reaction have been added:

	                 Relative
	Reactant            moles

	Ca                   0.50000
	K                   -1.00000

	                 Relative
	Element             moles
	Ca                   0.50000
	K                   -1.00000

-----------------------------Exchange composition------------------------------

X                4.000e-01 mol

	                               Equiv-    Equivalent      Log 
	Species             Moles      alents      Fraction     Gamma

	KX                3.381e-01   3.381e-01   8.451e-01    -0.094
	CaX2              3.097e-02   6.195e-02   1.549e-01    -0.339

-----------------------------Solution composition------------------------------

	Elements           Molality       Moles

	Ca                6.526e-03   6.526e-03
	K                 8.695e-02   8.695e-02

----------------------------Description of solution----------------------------

                                       pH  =   6.988      Charge balance
                                       pe  =  10.937      Adjusted to redox equilibrium
      Specific Conductance (µS/cm,  25°C)  = 6235
                          Density (g/cm³)  =   1.00001
                               Volume (L)  =   1.00365
                        Activity of water  =   0.998
                 Ionic strength (mol/kgw)  =   5.653e-02
                       Mass of water (kg)  =   1.000e+00
                 Total alkalinity (eq/kg)  =   7.391e-09
                         Temperature (°C)  =  25.00
                  Electrical balance (eq)  =   1.000e-01
 Percent error, 100*(Cat-|An|)/(Cat+|An|)  = 100.00
                               Iterations  =  14
                                  Total H  = 1.110124e+02
                                  Total O  = 5.550622e+01

----------------------------Distribution of species----------------------------

                                               Log       Log       Log    mole V
   Species          Molality    Activity  Molality  Activity     Gamma   cm³/mol

   OH-             1.225e-07   9.838e-08    -6.912    -7.007    -0.095     -3.85
   H+              1.210e-07   1.027e-07    -6.917    -6.988    -0.071      0.00
   H2O             5.551e+01   9.984e-01     1.744    -0.001     0.000     18.07
Ca            6.526e-03
   Ca+2            6.526e-03   2.986e-03    -2.185    -2.525    -0.339    -17.59
   CaOH+           5.917e-09   4.817e-09    -8.228    -8.317    -0.089     (0)  
H(0)          1.972e-39
   H2              9.862e-40   9.992e-40   -39.006   -39.000     0.006     28.61
K             8.695e-02
   K+              8.695e-02   6.996e-02    -1.061    -1.155    -0.094      9.18
O(0)          8.217e-15
   O2              4.109e-15   4.162e-15   -14.386   -14.381     0.006     30.40

------------------------------Saturation indices-------------------------------

  Phase               SI** log IAP   log K(298 K,   1 atm)

  H2(g)           -35.90    -39.00   -3.10  H2
  H2O(g)           -1.50     -0.00    1.50  H2O
  O2(g)           -11.49    -14.38   -2.89  O2

**For a gas, SI = log10(fugacity). Fugacity = pressure * phi / 1 atm.
  For ideal gases, phi = 1.

Reaction step 4.

Using solution 1.	
Using exchange 1.	
Using reaction 1.	

Reaction 1.	

	  1.000e-01 moles of the following reaction have been added:

	                 Relative
	Reactant            moles

	Ca                   0.50000
	K                   -1.00000

	                 Relative
	Element             moles
	Ca                   0.50000
	K                   -1.00000

-----------------------------Exchange composition------------------------------

X                4.000e-01 mol

	                               Equiv-    Equivalent      Log 
	Species             Moles      alents      Fraction     Gamma

	KX                3.176e-01   3.176e-01   7.941e-01    -0.096
	CaX2              4.118e-02   8.236e-02   2.059e-01    -0.344

-----------------------------Solution composition------------------------------

	Elements           Molality       Moles

	Ca                8.818e-03   8.818e-03
	K                 8.236e-02   8.236e-02

----------------------------Description of solution----------------------------

                                       pH  =   6.985      Charge balance
                                       pe  =  10.941      Adjusted to redox equilibrium
      Specific Conductance (µS/cm,  25°C)  = 6130
                          Density (g/cm³)  =   1.00001
                               Volume (L)  =   1.00357
                        Activity of water  =   0.998
                 Ionic strength (mol/kgw)  =   5.882e-02
                       Mass of water (kg)  =   1.000e+00
                 Total alkalinity (eq/kg)  =   7.391e-09
                         Temperature (°C)  =  25.00
                  Electrical balance (eq)  =   1.000e-01
 Percent error, 100*(Cat-|An|)/(Cat+|An|)  = 100.00
                               Iterations  =  14
                                  Total H  = 1.110124e+02
                                  Total O  = 5.550622e+01

----------------------------Distribution of species----------------------------

                                               Log       Log       Log    mole V
   Species          Molality    Activity  Molality  Activity     Gamma   cm³/mol

   H+              1.223e-07   1.036e-07    -6.912    -6.985    -0.072      0.00
   OH-             1.219e-07   9.752e-08    -6.914    -7.011    -0.097     -3.85
   H2O             5.551e+01   9.984e-01     1.744    -0.001     0.000     18.07
Ca            8.818e-03
   Ca+2            8.818e-03   3.993e-03    -2.055    -2.399    -0.344    -17.58
   CaOH+           7.865e-09   6.384e-09    -8.104    -8.195    -0.091     (0)  
H(0)          1.971e-39
   H2              9.853e-40   9.988e-40   -39.006   -39.001     0.006     28.61
K             8.236e-02
   K+              8.236e-02   6.605e-02    -1.084    -1.180    -0.096      9.18
O(0)          8.220e-15
   O2              4.110e-15   4.166e-15   -14.386   -14.380     0.006     30.40

------------------------------Saturation indices-------------------------------

  Phase               SI** log IAP   log K(298 K,   1 atm)

  H2(g)           -35.90    -39.00   -3.10  H2
  H2O(g)           -1.50     -0.00    1.50  H2O
  O2(g)           -11.49    -14.38   -2.89  O2

**For a gas, SI = log10(fugacity). Fugacity = pressure * phi / 1 atm.
  For ideal gases, phi = 1.

Reaction step 5.

Using solution 1.	
Using exchange 1.	
Using reaction 1.	

Reaction 1.	

	  1.250e-01 moles of the following reaction have been added:

	                 Relative
	Reactant            moles

	Ca                   0.50000
	K                   -1.00000

	                 Relative
	Element             moles
	Ca                   0.50000
	K                   -1.00000

-----------------------------Exchange composition------------------------------

X                4.000e-01 mol

	                               Equiv-    Equivalent      Log 
	Species             Moles      alents      Fraction     Gamma

	KX                2.973e-01   2.973e-01   7.433e-01    -0.097
	CaX2              5.134e-02   1.027e-01   2.567e-01    -0.349

-----------------------------Solution composition------------------------------

	Elements           Molality       Moles

	Ca                1.116e-02   1.116e-02
	K                 7.768e-02   7.768e-02

----------------------------Description of solution----------------------------

                                       pH  =   6.981      Charge balance
                                       pe  =  10.944      Adjusted to redox equilibrium
      Specific Conductance (µS/cm,  25°C)  = 6022
                          Density (g/cm³)  =   1.00000
                               Volume (L)  =   1.00348
                        Activity of water  =   0.998
                 Ionic strength (mol/kgw)  =   6.116e-02
                       Mass of water (kg)  =   1.000e+00
                 Total alkalinity (eq/kg)  =   7.391e-09
                         Temperature (°C)  =  25.00
                  Electrical balance (eq)  =   1.000e-01
 Percent error, 100*(Cat-|An|)/(Cat+|An|)  = 100.00
                               Iterations  =  14
                                  Total H  = 1.110124e+02
                                  Total O  = 5.550622e+01

----------------------------Distribution of species----------------------------

                                               Log       Log       Log    mole V
   Species          Molality    Activity  Molality  Activity     Gamma   cm³/mol

   H+              1.236e-07   1.045e-07    -6.908    -6.981    -0.073      0.00
   OH-             1.212e-07   9.669e-08    -6.916    -7.015    -0.098     -3.84
   H2O             5.551e+01   9.985e-01     1.744    -0.001     0.000     18.07
Ca            1.116e-02
   Ca+2            1.116e-02   5.000e-03    -1.952    -2.301    -0.349    -17.57
   CaOH+           9.792e-09   7.927e-09    -8.009    -8.101    -0.092     (0)  
H(0)          1.970e-39
   H2              9.848e-40   9.988e-40   -39.007   -39.001     0.006     28.61
K             7.768e-02
   K+              7.768e-02   6.209e-02    -1.110    -1.207    -0.097      9.19
O(0)          8.216e-15
   O2              4.108e-15   4.166e-15   -14.386   -14.380     0.006     30.40

------------------------------Saturation indices-------------------------------

  Phase               SI** log IAP   log K(298 K,   1 atm)

  H2(g)           -35.90    -39.00   -3.10  H2
  H2O(g)           -1.50     -0.00    1.50  H2O
  O2(g)           -11.49    -14.38   -2.89  O2

**For a gas, SI = log10(fugacity). Fugacity = pressure * phi / 1 atm.
  For ideal gases, phi = 1.

Reaction step 6.

Using solution 1.	
Using exchange 1.	
Using reaction 1.	

Reaction 1.	

	  1.500e-01 moles of the following reaction have been added:

	                 Relative
	Reactant            moles

	Ca                   0.50000
	K                   -1.00000

	                 Relative
	Element             moles
	Ca                   0.50000
	K                   -1.00000

-----------------------------Exchange composition------------------------------

X                4.000e-01 mol

	                               Equiv-    Equivalent      Log 
	Species             Moles      alents      Fraction     Gamma

	KX                2.771e-01   2.771e-01   6.927e-01    -0.099
	CaX2              6.145e-02   1.229e-01   3.073e-01    -0.353

-----------------------------Solution composition------------------------------

	Elements           Molality       Moles

	Ca                1.355e-02   1.355e-02
	K                 7.290e-02   7.290e-02

----------------------------Description of solution----------------------------

                                       pH  =   6.977      Charge balance
                                       pe  =  10.949      Adjusted to redox equilibrium
      Specific Conductance (µS/cm,  25°C)  = 5912
                          Density (g/cm³)  =   1.00000
                               Volume (L)  =   1.00340
                        Activity of water  =   0.999
                 Ionic strength (mol/kgw)  =   6.355e-02
                       Mass of water (kg)  =   1.000e+00
                 Total alkalinity (eq/kg)  =   7.391e-09
                         Temperature (°C)  =  25.00
                  Electrical balance (eq)  =   1.000e-01
 Percent error, 100*(Cat-|An|)/(Cat+|An|)  = 100.00
                               Iterations  =  14
                                  Total H  = 1.110124e+02
                                  Total O  = 5.550622e+01

----------------------------Distribution of species----------------------------

                                               Log       Log       Log    mole V
   Species          Molality    Activity  Molality  Activity     Gamma   cm³/mol

   H+              1.249e-07   1.054e-07    -6.903    -6.977    -0.074      0.00
   OH-             1.206e-07   9.587e-08    -6.919    -7.018    -0.100     -3.83
   H2O             5.551e+01   9.985e-01     1.744    -0.001     0.000     18.07
Ca            1.355e-02
   Ca+2            1.355e-02   6.007e-03    -1.868    -2.221    -0.353    -17.56
   CaOH+           1.170e-08   9.443e-09    -7.932    -8.025    -0.093     (0)  
H(0)          1.966e-39
   H2              9.828e-40   9.973e-40   -39.008   -39.001     0.006     28.61
K             7.290e-02
   K+              7.290e-02   5.808e-02    -1.137    -1.236    -0.099      9.19
O(0)          8.237e-15
   O2              4.118e-15   4.179e-15   -14.385   -14.379     0.006     30.40

------------------------------Saturation indices-------------------------------

  Phase               SI** log IAP   log K(298 K,   1 atm)

  H2(g)           -35.90    -39.00   -3.10  H2
  H2O(g)           -1.50     -0.00    1.50  H2O
  O2(g)           -11.49    -14.38   -2.89  O2

**For a gas, SI = log10(fugacity). Fugacity = pressure * phi / 1 atm.
  For ideal gases, phi = 1.

Reaction step 7.

Using solution 1.	
Using exchange 1.	
Using reaction 1.	

Reaction 1.	

	  1.750e-01 moles of the following reaction have been added:

	                 Relative
	Reactant            moles

	Ca                   0.50000
	K                   -1.00000

	                 Relative
	Element             moles
	Ca                   0.50000
	K                   -1.00000

-----------------------------Exchange composition------------------------------

X                4.000e-01 mol

	                               Equiv-    Equivalent      Log 
	Species             Moles      alents      Fraction     Gamma

	KX                2.570e-01   2.570e-01   6.424e-01    -0.100
	CaX2              7.152e-02   1.430e-01   3.576e-01    -0.358

-----------------------------Solution composition------------------------------

	Elements           Molality       Moles

	Ca                1.598e-02   1.598e-02
	K                 6.805e-02   6.805e-02

----------------------------Description of solution----------------------------

                                       pH  =   6.973      Charge balance
                                       pe  =  10.953      Adjusted to redox equilibrium
      Specific Conductance (µS/cm,  25°C)  = 5799
                          Density (g/cm³)  =   0.99999
                               Volume (L)  =   1.00331
                        Activity of water  =   0.999
                 Ionic strength (mol/kgw)  =   6.598e-02
                       Mass of water (kg)  =   1.000e+00
                 Total alkalinity (eq/kg)  =   7.391e-09
                         Temperature (°C)  =  25.00
                  Electrical balance (eq)  =   1.000e-01
 Percent error, 100*(Cat-|An|)/(Cat+|An|)  = 100.00
                               Iterations  =  14
                                  Total H  = 1.110124e+02
                                  Total O  = 5.550622e+01

----------------------------Distribution of species----------------------------

                                               Log       Log       Log    mole V
   Species          Molality    Activity  Molality  Activity     Gamma   cm³/mol

   H+              1.262e-07   1.063e-07    -6.899    -6.973    -0.074      0.00
   OH-             1.200e-07   9.507e-08    -6.921    -7.022    -0.101     -3.82
   H2O             5.551e+01   9.986e-01     1.744    -0.001     0.000     18.07
Ca            1.598e-02
   Ca+2            1.598e-02   7.012e-03    -1.797    -2.154    -0.358    -17.55
   CaOH+           1.358e-08   1.093e-08    -7.867    -7.961    -0.094     (0)  
H(0)          1.960e-39
   H2              9.802e-40   9.952e-40   -39.009   -39.002     0.007     28.61
K             6.805e-02
   K+              6.805e-02   5.403e-02    -1.167    -1.267    -0.100      9.19
O(0)          8.267e-15
   O2              4.134e-15   4.197e-15   -14.384   -14.377     0.007     30.40

------------------------------Saturation indices-------------------------------

  Phase               SI** log IAP   log K(298 K,   1 atm)

  H2(g)           -35.90    -39.00   -3.10  H2
  H2O(g)           -1.50     -0.00    1.50  H2O
  O2(g)           -11.48    -14.38   -2.89  O2

**For a gas, SI = log10(fugacity). Fugacity = pressure * phi / 1 atm.
  For ideal gases, phi = 1.

Reaction step 8.

Using solution 1.	
Using exchange 1.	
Using reaction 1.	

Reaction 1.	

	  2.000e-01 moles of the following reaction have been added:

	                 Relative
	Reactant            moles

	Ca                   0.50000
	K                   -1.00000

	                 Relative
	Element             moles
	Ca                   0.50000
	K                   -1.00000

-----------------------------Exchange composition------------------------------

X                4.000e-01 mol

	                               Equiv-    Equivalent      Log 
	Species             Moles      alents      Fraction     Gamma

	KX                2.369e-01   2.369e-01   5.922e-01    -0.102
	CaX2              8.156e-02   1.631e-01   4.078e-01    -0.362

-----------------------------Solution composition------------------------------

	Elements           Molality       Moles

	Ca                1.844e-02   1.844e-02
	K                 6.312e-02   6.312e-02

----------------------------Description of solution----------------------------

                                       pH  =   6.970      Charge balance
                                       pe  =  10.956      Adjusted to redox equilibrium
      Specific Conductance (µS/cm,  25°C)  = 5685
                          Density (g/cm³)  =   0.99998
                               Volume (L)  =   1.00322
                        Activity of water  =   0.999
                 Ionic strength (mol/kgw)  =   6.844e-02
                       Mass of water (kg)  =   1.000e+00
                 Total alkalinity (eq/kg)  =   7.391e-09
                         Temperature (°C)  =  25.00
                  Electrical balance (eq)  =   1.000e-01
 Percent error, 100*(Cat-|An|)/(Cat+|An|)  = 100.00
                               Iterations  =  14
                                  Total H  = 1.110124e+02
                                  Total O  = 5.550622e+01

----------------------------Distribution of species----------------------------

                                               Log       Log       Log    mole V
   Species          Molality    Activity  Molality  Activity     Gamma   cm³/mol

   H+              1.275e-07   1.072e-07    -6.895    -6.970    -0.075      0.00
   OH-             1.194e-07   9.430e-08    -6.923    -7.025    -0.103     -3.82
   H2O             5.551e+01   9.986e-01     1.744    -0.001     0.000     18.07
Ca            1.844e-02
   Ca+2            1.844e-02   8.013e-03    -1.734    -2.096    -0.362    -17.54
   CaOH+           1.543e-08   1.239e-08    -7.812    -7.907    -0.095     (0)  
H(0)          1.957e-39
   H2              9.784e-40   9.939e-40   -39.009   -39.003     0.007     28.61
K             6.312e-02
   K+              6.312e-02   4.996e-02    -1.200    -1.301    -0.102      9.20
O(0)          8.284e-15
   O2              4.142e-15   4.208e-15   -14.383   -14.376     0.007     30.40

------------------------------Saturation indices-------------------------------

  Phase               SI** log IAP   log K(298 K,   1 atm)

  H2(g)           -35.90    -39.00   -3.10  H2
  H2O(g)           -1.50     -0.00    1.50  H2O
  O2(g)           -11.48    -14.38   -2.89  O2

**For a gas, SI = log10(fugacity). Fugacity = pressure * phi / 1 atm.
  For ideal gases, phi = 1.

Reaction step 9.

Using solution 1.	
Using exchange 1.	
Using reaction 1.	

Reaction 1.	

	  2.250e-01 moles of the following reaction have been added:

	                 Relative
	Reactant            moles

	Ca                   0.50000
	K                   -1.00000

	                 Relative
	Element             moles
	Ca                   0.50000
	K                   -1.00000

-----------------------------Exchange composition------------------------------

X                4.000e-01 mol

	                               Equiv-    Equivalent      Log 
	Species             Moles      alents      Fraction     Gamma

	KX                2.169e-01   2.169e-01   5.422e-01    -0.103
	CaX2              9.156e-02   1.831e-01   4.578e-01    -0.366

-----------------------------Solution composition------------------------------

	Elements           Molality       Moles

	Ca                2.094e-02   2.094e-02
	K                 5.812e-02   5.812e-02

----------------------------Description of solution----------------------------

                                       pH  =   6.966      Charge balance
                                       pe  =  10.960      Adjusted to redox equilibrium
      Specific Conductance (µS/cm,  25°C)  = 5570
                          Density (g/cm³)  =   0.99998
                               Volume (L)  =   1.00313
                        Activity of water  =   0.999
                 Ionic strength (mol/kgw)  =   7.094e-02
                       Mass of water (kg)  =   1.000e+00
                 Total alkalinity (eq/kg)  =   7.391e-09
                         Temperature (°C)  =  25.00
                  Electrical balance (eq)  =   1.000e-01
 Percent error, 100*(Cat-|An|)/(Cat+|An|)  = 100.00
                               Iterations  =  14
                                  Total H  = 1.110124e+02
                                  Total O  = 5.550622e+01

----------------------------Distribution of species----------------------------

                                               Log       Log       Log    mole V
   Species          Molality    Activity  Molality  Activity     Gamma   cm³/mol

   H+              1.287e-07   1.081e-07    -6.890    -6.966    -0.076      0.00
   OH-             1.189e-07   9.355e-08    -6.925    -7.029    -0.104     -3.81
   H2O             5.551e+01   9.987e-01     1.744    -0.001     0.000     18.07
Ca            2.094e-02
   Ca+2            2.094e-02   9.009e-03    -1.679    -2.045    -0.366    -17.53
   CaOH+           1.725e-08   1.382e-08    -7.763    -7.860    -0.096     (0)  
H(0)          1.953e-39
   H2              9.767e-40   9.928e-40   -39.010   -39.003     0.007     28.61
K             5.812e-02
   K+              5.812e-02   4.585e-02    -1.236    -1.339    -0.103      9.20
O(0)          8.299e-15
   O2              4.150e-15   4.218e-15   -14.382   -14.375     0.007     30.40

------------------------------Saturation indices-------------------------------

  Phase               SI** log IAP   log K(298 K,   1 atm)

  H2(g)           -35.90    -39.00   -3.10  H2
  H2O(g)           -1.50     -0.00    1.50  H2O
  O2(g)           -11.48    -14.37   -2.89  O2

**For a gas, SI = log10(fugacity). Fugacity = pressure * phi / 1 atm.
  For ideal gases, phi = 1.

Reaction step 10.

Using solution 1.	
Using exchange 1.	
Using reaction 1.	

Reaction 1.	

	  2.500e-01 moles of the following reaction have been added:

	                 Relative
	Reactant            moles

	Ca                   0.50000
	K                   -1.00000

	                 Relative
	Element             moles
	Ca                   0.50000
	K                   -1.00000

-----------------------------Exchange composition------------------------------

X                4.000e-01 mol

	                               Equiv-    Equivalent      Log 
	Species             Moles      alents      Fraction     Gamma

	KX                1.969e-01   1.969e-01   4.924e-01    -0.104
	CaX2              1.015e-01   2.031e-01   5.076e-01    -0.371

-----------------------------Solution composition------------------------------

	Elements           Molality       Moles

	Ca                2.347e-02   2.347e-02
	K                 5.306e-02   5.306e-02

----------------------------Description of solution----------------------------

                                       pH  =   6.963      Charge balance
                                       pe  =  10.964      Adjusted to redox equilibrium
      Specific Conductance (µS/cm,  25°C)  = 5452
                          Density (g/cm³)  =   0.99997
                               Volume (L)  =   1.00304
                        Activity of water  =   0.999
                 Ionic strength (mol/kgw)  =   7.347e-02
                       Mass of water (kg)  =   1.000e+00
                 Total alkalinity (eq/kg)  =   7.391e-09
                         Temperature (°C)  =  25.00
                  Electrical balance (eq)  =   1.000e-01
 Percent error, 100*(Cat-|An|)/(Cat+|An|)  = 100.00
                               Iterations  =  14
                                  Total H  = 1.110124e+02
                                  Total O  = 5.550622e+01

----------------------------Distribution of species----------------------------

                                               Log       Log       Log    mole V
   Species          Molality    Activity  Molality  Activity     Gamma   cm³/mol

   H+              1.300e-07   1.089e-07    -6.886    -6.963    -0.077      0.00
   OH-             1.183e-07   9.281e-08    -6.927    -7.032    -0.105     -3.80
   H2O             5.551e+01   9.987e-01     1.744    -0.001     0.000     18.07
Ca            2.347e-02
   Ca+2            2.347e-02   1.000e-02    -1.629    -2.000    -0.371    -17.52
   CaOH+           1.905e-08   1.522e-08    -7.720    -7.818    -0.098     (0)  
H(0)          1.945e-39
   H2              9.726e-40   9.892e-40   -39.012   -39.005     0.007     28.61
K             5.306e-02
   K+              5.306e-02   4.173e-02    -1.275    -1.380    -0.104      9.21
O(0)          8.355e-15
   O2              4.178e-15   4.249e-15   -14.379   -14.372     0.007     30.40

------------------------------Saturation indices-------------------------------

  Phase               SI** log IAP   log K(298 K,   1 atm)

  H2(g)           -35.90    -39.00   -3.10  H2
  H2O(g)           -1.50     -0.00    1.50  H2O
  O2(g)           -11.48    -14.37   -2.89  O2

**For a gas, SI = log10(fugacity). Fugacity = pressure * phi / 1 atm.
  For ideal gases, phi = 1.

Reaction step 11.

Using solution 1.	
Using exchange 1.	
Using reaction 1.	

Reaction 1.	

	  2.750e-01 moles of the following reaction have been added:

	                 Relative
	Reactant            moles

	Ca                   0.50000
	K                   -1.00000

	                 Relative
	Element             moles
	Ca                   0.50000
	K                   -1.00000

-----------------------------Exchange composition------------------------------

X                4.000e-01 mol

	                               Equiv-    Equivalent      Log 
	Species             Moles      alents      Fraction     Gamma

	KX                1.771e-01   1.771e-01   4.426e-01    -0.106
	CaX2              1.115e-01   2.229e-01   5.574e-01    -0.375

-----------------------------Solution composition------------------------------

	Elements           Molality       Moles

	Ca                2.603e-02   2.603e-02
	K                 4.794e-02   4.794e-02

----------------------------Description of solution----------------------------

                                       pH  =   6.960      Charge balance
                                       pe  =  10.970      Adjusted to redox equilibrium
      Specific Conductance (µS/cm,  25°C)  = 5334
                          Density (g/cm³)  =   0.99997
                               Volume (L)  =   1.00295
                        Activity of water  =   0.999
                 Ionic strength (mol/kgw)  =   7.603e-02
                       Mass of water (kg)  =   1.000e+00
                 Total alkalinity (eq/kg)  =   7.391e-09
                         Temperature (°C)  =  25.00
                  Electrical balance (eq)  =   1.000e-01
 Percent error, 100*(Cat-|An|)/(Cat+|An|)  = 100.00
                               Iterations  =  14
                                  Total H  = 1.110124e+02
                                  Total O  = 5.550622e+01

----------------------------Distribution of species----------------------------

                                               Log       Log       Log    mole V
   Species          Molality    Activity  Molality  Activity     Gamma   cm³/mol

   H+              1.312e-07   1.098e-07    -6.882    -6.960    -0.077      0.00
   OH-             1.178e-07   9.210e-08    -6.929    -7.036    -0.107     -3.80
   H2O             5.551e+01   9.987e-01     1.744    -0.001     0.000     18.07
Ca            2.603e-02
   Ca+2            2.603e-02   1.099e-02    -1.585    -1.959    -0.375    -17.51
   CaOH+           2.082e-08   1.659e-08    -7.682    -7.780    -0.099     (0)  
H(0)          1.929e-39
   H2              9.644e-40   9.814e-40   -39.016   -39.008     0.008     28.61
K             4.794e-02
   K+              4.794e-02   3.759e-02    -1.319    -1.425    -0.106      9.21
O(0)          8.484e-15
   O2              4.242e-15   4.317e-15   -14.372   -14.365     0.008     30.40

------------------------------Saturation indices-------------------------------

  Phase               SI** log IAP   log K(298 K,   1 atm)

  H2(g)           -35.91    -39.01   -3.10  H2
  H2O(g)           -1.50     -0.00    1.50  H2O
  O2(g)           -11.47    -14.36   -2.89  O2

**For a gas, SI = log10(fugacity). Fugacity = pressure * phi / 1 atm.
  For ideal gases, phi = 1.

Reaction step 12.

Using solution 1.	
Using exchange 1.	
Using reaction 1.	

Reaction 1.	

	  3.000e-01 moles of the following reaction have been added:

	                 Relative
	Reactant            moles

	Ca                   0.50000
	K                   -1.00000

	                 Relative
	Element             moles
	Ca                   0.50000
	K                   -1.00000

-----------------------------Exchange composition------------------------------

X                4.000e-01 mol

	                               Equiv-    Equivalent      Log 
	Species             Moles      alents      Fraction     Gamma

	KX                1.572e-01   1.572e-01   3.931e-01    -0.107
	CaX2              1.214e-01   2.428e-01   6.069e-01    -0.379

-----------------------------Solution composition------------------------------

	Elements           Molality       Moles

	Ca                2.861e-02   2.861e-02
	K                 4.277e-02   4.277e-02

----------------------------Description of solution----------------------------

                                       pH  =   6.956      Charge balance
                                       pe  =  10.970      Adjusted to redox equilibrium
      Specific Conductance (µS/cm,  25°C)  = 5214
                          Density (g/cm³)  =   0.99996
                               Volume (L)  =   1.00286
                        Activity of water  =   0.999
                 Ionic strength (mol/kgw)  =   7.861e-02
                       Mass of water (kg)  =   1.000e+00
                 Total alkalinity (eq/kg)  =   7.391e-09
                         Temperature (°C)  =  25.00
                  Electrical balance (eq)  =   1.000e-01
 Percent error, 100*(Cat-|An|)/(Cat+|An|)  = 100.00
                               Iterations  =  14
                                  Total H  = 1.110124e+02
                                  Total O  = 5.550622e+01

----------------------------Distribution of species----------------------------

                                               Log       Log       Log    mole V
   Species          Molality    Activity  Molality  Activity     Gamma   cm³/mol

   H+              1.324e-07   1.106e-07    -6.878    -6.956    -0.078      0.00
   OH-             1.172e-07   9.141e-08    -6.931    -7.039    -0.108     -3.79
   H2O             5.551e+01   9.988e-01     1.744    -0.001     0.000     18.07
Ca            2.861e-02
   Ca+2            2.861e-02   1.196e-02    -1.543    -1.922    -0.379    -17.50
   CaOH+           2.256e-08   1.793e-08    -7.647    -7.746    -0.100     (0)  
H(0)          1.956e-39
   H2              9.781e-40   9.960e-40   -39.010   -39.002     0.008     28.61
K             4.277e-02
   K+              4.277e-02   3.344e-02    -1.369    -1.476    -0.107      9.21
O(0)          8.235e-15
   O2              4.117e-15   4.192e-15   -14.385   -14.378     0.008     30.40

------------------------------Saturation indices-------------------------------

  Phase               SI** log IAP   log K(298 K,   1 atm)

  H2(g)           -35.90    -39.00   -3.10  H2
  H2O(g)           -1.50     -0.00    1.50  H2O
  O2(g)           -11.49    -14.38   -2.89  O2

**For a gas, SI = log10(fugacity). Fugacity = pressure * phi / 1 atm.
  For ideal gases, phi = 1.

Reaction step 13.

Using solution 1.	
Using exchange 1.	
Using reaction 1.	

Reaction 1.	

	  3.250e-01 moles of the following reaction have been added:

	                 Relative
	Reactant            moles

	Ca                   0.50000
	K                   -1.00000

	                 Relative
	Element             moles
	Ca                   0.50000
	K                   -1.00000

-----------------------------Exchange composition------------------------------

X                4.000e-01 mol

	                               Equiv-    Equivalent      Log 
	Species             Moles      alents      Fraction     Gamma

	KX                1.374e-01   1.374e-01   3.436e-01    -0.108
	CaX2              1.313e-01   2.626e-01   6.564e-01    -0.383

-----------------------------Solution composition------------------------------

	Elements           Molality       Moles

	Ca                3.122e-02   3.122e-02
	K                 3.756e-02   3.756e-02

----------------------------Description of solution----------------------------

                                       pH  =   6.953      Charge balance
                                       pe  =  10.973      Adjusted to redox equilibrium
      Specific Conductance (µS/cm,  25°C)  = 5092
                          Density (g/cm³)  =   0.99995
                               Volume (L)  =   1.00277
                        Activity of water  =   0.999
                 Ionic strength (mol/kgw)  =   8.122e-02
                       Mass of water (kg)  =   1.000e+00
                 Total alkalinity (eq/kg)  =   7.391e-09
                         Temperature (°C)  =  25.00
                  Electrical balance (eq)  =   1.000e-01
 Percent error, 100*(Cat-|An|)/(Cat+|An|)  = 100.00
                               Iterations  =  14
                                  Total H  = 1.110124e+02
                                  Total O  = 5.550622e+01

----------------------------Distribution of species----------------------------

                                               Log       Log       Log    mole V
   Species          Molality    Activity  Molality  Activity     Gamma   cm³/mol

   H+              1.336e-07   1.114e-07    -6.874    -6.953    -0.079      0.00
   OH-             1.167e-07   9.073e-08    -6.933    -7.042    -0.109     -3.78
   H2O             5.551e+01   9.988e-01     1.744    -0.001     0.000     18.07
Ca            3.122e-02
   Ca+2            3.122e-02   1.294e-02    -1.506    -1.888    -0.383    -17.49
   CaOH+           2.427e-08   1.925e-08    -7.615    -7.716    -0.101     (0)  
H(0)          1.956e-39
   H2              9.778e-40   9.963e-40   -39.010   -39.002     0.008     28.61
K             3.756e-02
   K+              3.756e-02   2.927e-02    -1.425    -1.534    -0.108      9.22
O(0)          8.225e-15
   O2              4.113e-15   4.190e-15   -14.386   -14.378     0.008     30.40

------------------------------Saturation indices-------------------------------

  Phase               SI** log IAP   log K(298 K,   1 atm)

  H2(g)           -35.90    -39.00   -3.10  H2
  H2O(g)           -1.50     -0.00    1.50  H2O
  O2(g)           -11.49    -14.38   -2.89  O2

**For a gas, SI = log10(fugacity). Fugacity = pressure * phi / 1 atm.
  For ideal gases, phi = 1.

Reaction step 14.

Using solution 1.	
Using exchange 1.	
Using reaction 1.	

Reaction 1.	

	  3.500e-01 moles of the following reaction have been added:

	                 Relative
	Reactant            moles

	Ca                   0.50000
	K                   -1.00000

	                 Relative
	Element             moles
	Ca                   0.50000
	K                   -1.00000

-----------------------------Exchange composition------------------------------

X                4.000e-01 mol

	                               Equiv-    Equivalent      Log 
	Species             Moles      alents      Fraction     Gamma

	CaX2              1.411e-01   2.823e-01   7.057e-01    -0.387
	KX                1.177e-01   1.177e-01   2.943e-01    -0.110

-----------------------------Solution composition------------------------------

	Elements           Molality       Moles

	Ca                3.385e-02   3.385e-02
	K                 3.230e-02   3.230e-02

----------------------------Description of solution----------------------------

                                       pH  =   6.950      Charge balance
                                       pe  =  10.976      Adjusted to redox equilibrium
      Specific Conductance (µS/cm,  25°C)  = 4970
                          Density (g/cm³)  =   0.99995
                               Volume (L)  =   1.00267
                        Activity of water  =   0.999
                 Ionic strength (mol/kgw)  =   8.385e-02
                       Mass of water (kg)  =   1.000e+00
                 Total alkalinity (eq/kg)  =   7.391e-09
                         Temperature (°C)  =  25.00
                  Electrical balance (eq)  =   1.000e-01
 Percent error, 100*(Cat-|An|)/(Cat+|An|)  = 100.00
                               Iterations  =  14
                                  Total H  = 1.110124e+02
                                  Total O  = 5.550622e+01

----------------------------Distribution of species----------------------------

                                               Log       Log       Log    mole V
   Species          Molality    Activity  Molality  Activity     Gamma   cm³/mol

   H+              1.348e-07   1.122e-07    -6.870    -6.950    -0.080      0.00
   OH-             1.163e-07   9.008e-08    -6.935    -7.045    -0.111     -3.77
   H2O             5.551e+01   9.989e-01     1.744    -0.000     0.000     18.07
Ca            3.385e-02
   Ca+2            3.385e-02   1.390e-02    -1.470    -1.857    -0.387    -17.48
   CaOH+           2.595e-08   2.053e-08    -7.586    -7.688    -0.102     (0)  
H(0)          1.952e-39
   H2              9.761e-40   9.951e-40   -39.010   -39.002     0.008     28.61
K             3.230e-02
   K+              3.230e-02   2.510e-02    -1.491    -1.600    -0.110      9.22
O(0)          8.239e-15
   O2              4.120e-15   4.200e-15   -14.385   -14.377     0.008     30.40

------------------------------Saturation indices-------------------------------

  Phase               SI** log IAP   log K(298 K,   1 atm)

  H2(g)           -35.90    -39.00   -3.10  H2
  H2O(g)           -1.50     -0.00    1.50  H2O
  O2(g)           -11.48    -14.38   -2.89  O2

**For a gas, SI = log10(fugacity). Fugacity = pressure * phi / 1 atm.
  For ideal gases, phi = 1.

Reaction step 15.

Using solution 1.	
Using exchange 1.	
Using reaction 1.	

Reaction 1.	

	  3.750e-01 moles of the following reaction have been added:

	                 Relative
	Reactant            moles

	Ca                   0.50000
	K                   -1.00000

	                 Relative
	Element             moles
	Ca                   0.50000
	K                   -1.00000

-----------------------------Exchange composition------------------------------

X                4.000e-01 mol

	                               Equiv-    Equivalent      Log 
	Species             Moles      alents      Fraction     Gamma

	CaX2              1.510e-01   3.020e-01   7.550e-01    -0.390
	KX                9.800e-02   9.800e-02   2.450e-01    -0.111

-----------------------------Solution composition------------------------------

	Elements           Molality       Moles

	Ca                3.650e-02   3.650e-02
	K                 2.700e-02   2.700e-02

----------------------------Description of solution----------------------------

                                       pH  =   6.947      Charge balance
                                       pe  =  10.979      Adjusted to redox equilibrium
      Specific Conductance (µS/cm,  25°C)  = 4846
                          Density (g/cm³)  =   0.99994
                               Volume (L)  =   1.00258
                        Activity of water  =   0.999
                 Ionic strength (mol/kgw)  =   8.650e-02
                       Mass of water (kg)  =   1.000e+00
                 Total alkalinity (eq/kg)  =   7.391e-09
                         Temperature (°C)  =  25.00
                  Electrical balance (eq)  =   1.000e-01
 Percent error, 100*(Cat-|An|)/(Cat+|An|)  = 100.00
                               Iterations  =  14
                                  Total H  = 1.110124e+02
                                  Total O  = 5.550622e+01

----------------------------Distribution of species----------------------------

                                               Log       Log       Log    mole V
   Species          Molality    Activity  Molality  Activity     Gamma   cm³/mol

   H+              1.360e-07   1.130e-07    -6.867    -6.947    -0.080      0.00
   OH-             1.158e-07   8.944e-08    -6.936    -7.048    -0.112     -3.77
   H2O             5.551e+01   9.989e-01     1.744    -0.000     0.000     18.07
Ca            3.650e-02
   Ca+2            3.650e-02   1.486e-02    -1.438    -1.828    -0.390    -17.48
   CaOH+           2.760e-08   2.179e-08    -7.559    -7.662    -0.103     (0)  
H(0)          1.953e-39
   H2              9.764e-40   9.961e-40   -39.010   -39.002     0.009     28.61
K             2.700e-02
   K+              2.700e-02   2.092e-02    -1.569    -1.679    -0.111      9.22
O(0)          8.219e-15
   O2              4.110e-15   4.192e-15   -14.386   -14.378     0.009     30.40

------------------------------Saturation indices-------------------------------

  Phase               SI** log IAP   log K(298 K,   1 atm)

  H2(g)           -35.90    -39.00   -3.10  H2
  H2O(g)           -1.50     -0.00    1.50  H2O
  O2(g)           -11.49    -14.38   -2.89  O2

**For a gas, SI = log10(fugacity). Fugacity = pressure * phi / 1 atm.
  For ideal gases, phi = 1.

Reaction step 16.

Using solution 1.	
Using exchange 1.	
Using reaction 1.	

Reaction 1.	

	  4.000e-01 moles of the following reaction have been added:

	                 Relative
	Reactant            moles

	Ca                   0.50000
	K                   -1.00000

	                 Relative
	Element             moles
	Ca                   0.50000
	K                   -1.00000

-----------------------------Exchange composition------------------------------

X                4.000e-01 mol

	                               Equiv-    Equivalent      Log 
	Species             Moles      alents      Fraction     Gamma

	CaX2              1.608e-01   3.217e-01   8.042e-01    -0.394
	KX                7.834e-02   7.834e-02   1.958e-01    -0.112

-----------------------------Solution composition------------------------------

	Elements           Molality       Moles

	Ca                3.917e-02   3.917e-02
	K                 2.166e-02   2.166e-02

----------------------------Description of solution----------------------------

                                       pH  =   6.944      Charge balance
                                       pe  =  10.982      Adjusted to redox equilibrium
      Specific Conductance (µS/cm,  25°C)  = 4721
                          Density (g/cm³)  =   0.99994
                               Volume (L)  =   1.00248
                        Activity of water  =   0.999
                 Ionic strength (mol/kgw)  =   8.917e-02
                       Mass of water (kg)  =   1.000e+00
                 Total alkalinity (eq/kg)  =   7.391e-09
                         Temperature (°C)  =  25.00
                  Electrical balance (eq)  =   1.000e-01
 Percent error, 100*(Cat-|An|)/(Cat+|An|)  = 100.00
                               Iterations  =  14
                                  Total H  = 1.110124e+02
                                  Total O  = 5.550622e+01

----------------------------Distribution of species----------------------------

                                               Log       Log       Log    mole V
   Species          Molality    Activity  Molality  Activity     Gamma   cm³/mol

   H+              1.371e-07   1.138e-07    -6.863    -6.944    -0.081      0.00
   OH-             1.153e-07   8.882e-08    -6.938    -7.052    -0.113     -3.76
   H2O             5.551e+01   9.990e-01     1.744    -0.000     0.000     18.07
Ca            3.917e-02
   Ca+2            3.917e-02   1.581e-02    -1.407    -1.801    -0.394    -17.47
   CaOH+           2.923e-08   2.302e-08    -7.534    -7.638    -0.104     (0)  
H(0)          1.950e-39
   H2              9.748e-40   9.950e-40   -39.011   -39.002     0.009     28.61
K             2.166e-02
   K+              2.166e-02   1.674e-02    -1.664    -1.776    -0.112      9.23
O(0)          8.233e-15
   O2              4.117e-15   4.202e-15   -14.385   -14.377     0.009     30.40

------------------------------Saturation indices-------------------------------

  Phase               SI** log IAP   log K(298 K,   1 atm)

  H2(g)           -35.90    -39.00   -3.10  H2
  H2O(g)           -1.50     -0.00    1.50  H2O
  O2(g)           -11.48    -14.38   -2.89  O2

**For a gas, SI = log10(fugacity). Fugacity = pressure * phi / 1 atm.
  For ideal gases, phi = 1.

Reaction step 17.

Using solution 1.	
Using exchange 1.	
Using reaction 1.	

Reaction 1.	

	  4.250e-01 moles of the following reaction have been added:

	                 Relative
	Reactant            moles

	Ca                   0.50000
	K                   -1.00000

	                 Relative
	Element             moles
	Ca                   0.50000
	K                   -1.00000

-----------------------------Exchange composition------------------------------

X                4.000e-01 mol

	                               Equiv-    Equivalent      Log 
	Species             Moles      alents      Fraction     Gamma

	CaX2              1.706e-01   3.413e-01   8.532e-01    -0.398
	KX                5.871e-02   5.871e-02   1.468e-01    -0.113

-----------------------------Solution composition------------------------------

	Elements           Molality       Moles

	Ca                4.185e-02   4.185e-02
	K                 1.629e-02   1.629e-02

----------------------------Description of solution----------------------------

                                       pH  =   6.941      Charge balance
                                       pe  =  10.986      Adjusted to redox equilibrium
      Specific Conductance (µS/cm,  25°C)  = 4596
                          Density (g/cm³)  =   0.99993
                               Volume (L)  =   1.00239
                        Activity of water  =   0.999
                 Ionic strength (mol/kgw)  =   9.185e-02
                       Mass of water (kg)  =   1.000e+00
                 Total alkalinity (eq/kg)  =   7.391e-09
                         Temperature (°C)  =  25.00
                  Electrical balance (eq)  =   1.000e-01
 Percent error, 100*(Cat-|An|)/(Cat+|An|)  = 100.00
                               Iterations  =  14
                                  Total H  = 1.110124e+02
                                  Total O  = 5.550622e+01

----------------------------Distribution of species----------------------------

                                               Log       Log       Log    mole V
   Species          Molality    Activity  Molality  Activity     Gamma   cm³/mol

   H+              1.383e-07   1.146e-07    -6.859    -6.941    -0.082      0.00
   OH-             1.149e-07   8.821e-08    -6.940    -7.054    -0.115     -3.75
   H2O             5.551e+01   9.990e-01     1.744    -0.000     0.000     18.07
Ca            4.185e-02
   Ca+2            4.185e-02   1.675e-02    -1.378    -1.776    -0.398    -17.46
   CaOH+           3.083e-08   2.423e-08    -7.511    -7.616    -0.105     (0)  
H(0)          1.947e-39
   H2              9.735e-40   9.943e-40   -39.012   -39.002     0.009     28.61
K             1.629e-02
   K+              1.629e-02   1.255e-02    -1.788    -1.901    -0.113      9.23
O(0)          8.240e-15
   O2              4.120e-15   4.208e-15   -14.385   -14.376     0.009     30.40

------------------------------Saturation indices-------------------------------

  Phase               SI** log IAP   log K(298 K,   1 atm)

  H2(g)           -35.90    -39.00   -3.10  H2
  H2O(g)           -1.50     -0.00    1.50  H2O
  O2(g)           -11.48    -14.38   -2.89  O2

**For a gas, SI = log10(fugacity). Fugacity = pressure * phi / 1 atm.
  For ideal gases, phi = 1.

Reaction step 18.

Using solution 1.	
Using exchange 1.	
Using reaction 1.	

Reaction 1.	

	  4.500e-01 moles of the following reaction have been added:

	                 Relative
	Reactant            moles

	Ca                   0.50000
	K                   -1.00000

	                 Relative
	Element             moles
	Ca                   0.50000
	K                   -1.00000

-----------------------------Exchange composition------------------------------

X                4.000e-01 mol

	                               Equiv-    Equivalent      Log 
	Species             Moles      alents      Fraction     Gamma

	CaX2              1.804e-01   3.609e-01   9.022e-01    -0.401
	KX                3.911e-02   3.911e-02   9.778e-02    -0.114

-----------------------------Solution composition------------------------------

	Elements           Molality       Moles

	Ca                4.456e-02   4.456e-02
	K                 1.089e-02   1.089e-02

----------------------------Description of solution----------------------------

                                       pH  =   6.938      Charge balance
                                       pe  =  10.989      Adjusted to redox equilibrium
      Specific Conductance (µS/cm,  25°C)  = 4469
                          Density (g/cm³)  =   0.99992
                               Volume (L)  =   1.00229
                        Activity of water  =   0.999
                 Ionic strength (mol/kgw)  =   9.456e-02
                       Mass of water (kg)  =   1.000e+00
                 Total alkalinity (eq/kg)  =   7.391e-09
                         Temperature (°C)  =  25.00
                  Electrical balance (eq)  =   1.000e-01
 Percent error, 100*(Cat-|An|)/(Cat+|An|)  = 100.00
                               Iterations  =  14
                                  Total H  = 1.110124e+02
                                  Total O  = 5.550622e+01

----------------------------Distribution of species----------------------------

                                               Log       Log       Log    mole V
   Species          Molality    Activity  Molality  Activity     Gamma   cm³/mol

   H+              1.394e-07   1.154e-07    -6.856    -6.938    -0.082      0.00
   OH-             1.144e-07   8.763e-08    -6.941    -7.057    -0.116     -3.75
   H2O             5.551e+01   9.991e-01     1.744    -0.000     0.000     18.07
Ca            4.456e-02
   Ca+2            4.456e-02   1.769e-02    -1.351    -1.752    -0.401    -17.45
   CaOH+           3.240e-08   2.541e-08    -7.489    -7.595    -0.105     (0)  
H(0)          1.945e-39
   H2              9.723e-40   9.937e-40   -39.012   -39.003     0.009     28.61
K             1.089e-02
   K+              1.089e-02   8.367e-03    -1.963    -2.077    -0.114      9.23
O(0)          8.247e-15
   O2              4.123e-15   4.214e-15   -14.385   -14.375     0.009     30.40

------------------------------Saturation indices-------------------------------

  Phase               SI** log IAP   log K(298 K,   1 atm)

  H2(g)           -35.90    -39.00   -3.10  H2
  H2O(g)           -1.50     -0.00    1.50  H2O
  O2(g)           -11.48    -14.38   -2.89  O2

**For a gas, SI = log10(fugacity). Fugacity = pressure * phi / 1 atm.
  For ideal gases, phi = 1.

Reaction step 19.

Using solution 1.	
Using exchange 1.	
Using reaction 1.	

Reaction 1.	

	  4.750e-01 moles of the following reaction have been added:

	                 Relative
	Reactant            moles

	Ca                   0.50000
	K                   -1.00000

	                 Relative
	Element             moles
	Ca                   0.50000
	K                   -1.00000

-----------------------------Exchange composition------------------------------

X                4.000e-01 mol

	                               Equiv-    Equivalent      Log 
	Species             Moles      alents      Fraction     Gamma

	CaX2              1.902e-01   3.805e-01   9.511e-01    -0.405
	KX                1.954e-02   1.954e-02   4.885e-02    -0.116

-----------------------------Solution composition------------------------------

	Elements           Molality       Moles

	Ca                4.727e-02   4.727e-02
	K                 5.458e-03   5.458e-03

----------------------------Description of solution----------------------------

                                       pH  =   6.935      Charge balance
                                       pe  =  10.991      Adjusted to redox equilibrium
      Specific Conductance (µS/cm,  25°C)  = 4342
                          Density (g/cm³)  =   0.99992
                               Volume (L)  =   1.00219
                        Activity of water  =   0.999
                 Ionic strength (mol/kgw)  =   9.727e-02
                       Mass of water (kg)  =   1.000e+00
                 Total alkalinity (eq/kg)  =   7.391e-09
                         Temperature (°C)  =  25.00
                  Electrical balance (eq)  =   1.000e-01
 Percent error, 100*(Cat-|An|)/(Cat+|An|)  = 100.00
                               Iterations  =  14
                                  Total H  = 1.110124e+02
                                  Total O  = 5.550622e+01

----------------------------Distribution of species----------------------------

                                               Log       Log       Log    mole V
   Species          Molality    Activity  Molality  Activity     Gamma   cm³/mol

   H+              1.405e-07   1.162e-07    -6.852    -6.935    -0.083      0.00
   OH-             1.140e-07   8.705e-08    -6.943    -7.060    -0.117     -3.74
   H2O             5.551e+01   9.991e-01     1.744    -0.000     0.000     18.07
Ca            4.727e-02
   Ca+2            4.727e-02   1.862e-02    -1.325    -1.730    -0.405    -17.44
   CaOH+           3.395e-08   2.657e-08    -7.469    -7.576    -0.106     (0)  
H(0)          1.949e-39
   H2              9.746e-40   9.967e-40   -39.011   -39.001     0.010     28.61
K             5.458e-03
   K+              5.458e-03   4.183e-03    -2.263    -2.379    -0.116      9.24
O(0)          8.192e-15
   O2              4.096e-15   4.189e-15   -14.388   -14.378     0.010     30.40

------------------------------Saturation indices-------------------------------

  Phase               SI** log IAP   log K(298 K,   1 atm)

  H2(g)           -35.90    -39.00   -3.10  H2
  H2O(g)           -1.50     -0.00    1.50  H2O
  O2(g)           -11.49    -14.38   -2.89  O2

**For a gas, SI = log10(fugacity). Fugacity = pressure * phi / 1 atm.
  For ideal gases, phi = 1.

Reaction step 20.

Using solution 1.	
Using exchange 1.	
Using reaction 1.	

Reaction 1.	

	  5.000e-01 moles of the following reaction have been added:

	                 Relative
	Reactant            moles

	Ca                   0.50000
	K                   -1.00000

	                 Relative
	Element             moles
	Ca                   0.50000
	K                   -1.00000

-----------------------------Exchange composition------------------------------

X                4.000e-01 mol

	                               Equiv-    Equivalent      Log 
	Species             Moles      alents      Fraction     Gamma

	CaX2              2.000e-01   4.000e-01   1.000e+00    -0.408
	KX                1.734e-15   1.734e-15   4.336e-15    -0.117

-----------------------------Solution composition------------------------------

	Elements           Molality       Moles

	Ca                5.000e-02   5.000e-02
	K                 4.860e-16   4.860e-16

----------------------------Description of solution----------------------------

                                       pH  =   6.932      Charge balance
                                       pe  =  10.994      Adjusted to redox equilibrium
      Specific Conductance (µS/cm,  25°C)  = 4214
                          Density (g/cm³)  =   0.99991
                               Volume (L)  =   1.00209
                        Activity of water  =   0.999
                 Ionic strength (mol/kgw)  =   1.000e-01
                       Mass of water (kg)  =   1.000e+00
                 Total alkalinity (eq/kg)  =   7.391e-09
                         Temperature (°C)  =  25.00
                  Electrical balance (eq)  =   1.000e-01
 Percent error, 100*(Cat-|An|)/(Cat+|An|)  = 100.00
                               Iterations  =  14
                                  Total H  = 1.110124e+02
                                  Total O  = 5.550622e+01

----------------------------Distribution of species----------------------------

                                               Log       Log       Log    mole V
   Species          Molality    Activity  Molality  Activity     Gamma   cm³/mol

   H+              1.417e-07   1.169e-07    -6.849    -6.932    -0.083      0.00
   OH-             1.136e-07   8.650e-08    -6.945    -7.063    -0.118     -3.73
   H2O             5.551e+01   9.991e-01     1.744    -0.000     0.000     18.07
Ca            5.000e-02
   Ca+2            5.000e-02   1.954e-02    -1.301    -1.709    -0.408    -17.43
   CaOH+           3.547e-08   2.771e-08    -7.450    -7.557    -0.107     (0)  
H(0)          1.941e-39
   H2              9.706e-40   9.932e-40   -39.013   -39.003     0.010     28.61
K             4.860e-16
   K+              4.860e-16   3.714e-16   -15.313   -15.430    -0.117      9.24
O(0)          8.246e-15
   O2              4.123e-15   4.219e-15   -14.385   -14.375     0.010     30.40

------------------------------Saturation indices-------------------------------

  Phase               SI** log IAP   log K(298 K,   1 atm)

  H2(g)           -35.90    -39.00   -3.10  H2
  H2O(g)           -1.50     -0.00    1.50  H2O
  O2(g)           -11.48    -14.37   -2.89  O2

**For a gas, SI = log10(fugacity). Fugacity = pressure * phi / 1 atm.
  For ideal gases, phi = 1.

------------------
End of simulation.
------------------

------------------------------------
Reading input data for simulation 2.
------------------------------------

----------------------------------
End of Run after 0.035558 Seconds.
----------------------------------

