   Input file: ../examples/Ex_Exchange_Isotherms_KX_Reaction
  Output file: ../examples/Ex_Exchange_Isotherms_KX_Reaction.out
Database file: ../database/phreeqc.dat

------------------
Reading data base.
------------------

	SOLUTION_MASTER_SPECIES
	SOLUTION_SPECIES
	PHASES
	EXCHANGE_MASTER_SPECIES
	EXCHANGE_SPECIES
	SURFACE_MASTER_SPECIES
	SURFACE_SPECIES
	RATES
	END
------------------------------------
Reading input data for simulation 1.
------------------------------------

	DATABASE ../database/phreeqc.dat
	TITLE Ion Exchange with Reactions and Isotherm plots
	SOLUTION 1
	K 100.0
	Ca 0.0
	EXCHANGE 1
	KX 0.4 # 400 mmol KX # 400 mmol KX, total K = 500 mmol
	REACTION
	 K -1 Ca 0.5
	 0.500 in 20 steps
	PRINT 
	reset true
	totals true
	exchange true
	SELECTED_OUTPUT
	file   ../out/ion-exchange-isotherms-kx-reaction.txt
	ionic_strength
	totals K Ca
	molalities K+ Ca+2 KX CaX2
	END
-----
TITLE
-----

 Ion Exchange with Reactions and Isotherm plots

-------------------------------------------
Beginning of initial solution calculations.
-------------------------------------------

Initial solution 1.	

-----------------------------Solution composition------------------------------

	Elements           Molality       Moles

	K                 1.000e-01   1.000e-01

----------------------------Description of solution----------------------------

                                       pH  =   7.000    
                                       pe  =   4.000    
      Specific Conductance (µS/cm,  25°C)  = 6535
                          Density (g/cm³)  =   1.00003
                               Volume (L)  =   1.00388
                        Activity of water  =   0.998
                 Ionic strength (mol/kgw)  =   5.000e-02
                       Mass of water (kg)  =   1.000e+00
                 Total alkalinity (eq/kg)  =   7.391e-09
                         Temperature (°C)  =  25.00
                  Electrical balance (eq)  =   1.000e-01
 Percent error, 100*(Cat-|An|)/(Cat+|An|)  = 100.00
                               Iterations  =   4
                                  Total H  = 1.110124e+02
                                  Total O  = 5.550622e+01

----------------------------Distribution of species----------------------------

                                               Log       Log       Log    mole V
   Species          Molality    Activity  Molality  Activity     Gamma   cm³/mol

   OH-             1.245e-07   1.010e-07    -6.905    -6.995    -0.091     -3.87
   H+              1.171e-07   1.000e-07    -6.931    -7.000    -0.069      0.00
   H2O             5.551e+01   9.983e-01     1.744    -0.001     0.000     18.07
H(0)          1.400e-25
   H2              6.998e-26   7.079e-26   -25.155   -25.150     0.005     28.61
K             1.000e-01
   K+              1.000e-01   8.129e-02    -1.000    -1.090    -0.090      9.17
O(0)          0.000e+00
   O2              0.000e+00   0.000e+00   -42.086   -42.081     0.005     30.40

------------------------------Saturation indices-------------------------------

  Phase               SI** log IAP   log K(298 K,   1 atm)

  H2(g)           -22.05    -25.15   -3.10  H2
  H2O(g)           -1.50     -0.00    1.50  H2O
  O2(g)           -39.19    -42.08   -2.89  O2

**For a gas, SI = log10(fugacity). Fugacity = pressure * phi / 1 atm.
  For ideal gases, phi = 1.

-----------------------------------------
Beginning of batch-reaction calculations.
-----------------------------------------

Reaction step 1.

-----------------------------Exchange composition------------------------------

X                4.000e-01 mol

	                               Equiv-    Equivalent      Log 
	Species             Moles      alents      Fraction     Gamma

	KX                1.472e-02   1.472e-02   3.680e-02    -0.097
	CaX2              3.835e-05   7.670e-05   1.917e-04    -0.348

-----------------------------Exchange composition------------------------------

X                4.000e-01 mol

	                               Equiv-    Equivalent      Log 
	Species             Moles      alents      Fraction     Gamma

	KX                1.472e-02   1.472e-02   3.680e-02    -0.097
	CaX2              3.835e-05   7.670e-05   1.917e-04    -0.348

-----------------------------Exchange composition------------------------------

X                4.000e-01 mol

	                               Equiv-    Equivalent      Log 
	Species             Moles      alents      Fraction     Gamma

	KX                1.472e-02   1.472e-02   3.680e-02    -0.097
	CaX2              3.835e-05   7.670e-05   1.917e-04    -0.348

-----------------------------Exchange composition------------------------------

X                4.000e-01 mol

	                               Equiv-    Equivalent      Log 
	Species             Moles      alents      Fraction     Gamma

	KX                1.472e-02   1.472e-02   3.680e-02    -0.097
	CaX2              3.835e-05   7.670e-05   1.917e-04    -0.348

-----------------------------Exchange composition------------------------------

X                4.000e-01 mol

	                               Equiv-    Equivalent      Log 
	Species             Moles      alents      Fraction     Gamma

	KX                1.472e-02   1.472e-02   3.680e-02    -0.097
	CaX2              3.835e-05   7.670e-05   1.918e-04    -0.348

-----------------------------Exchange composition------------------------------

X                4.000e-01 mol

	                               Equiv-    Equivalent      Log 
	Species             Moles      alents      Fraction     Gamma

	KX                1.416e+00   1.416e+00   3.539e+00    -0.097
	CaX2              4.408e-01   8.816e-01   2.204e+00    -0.348

-----------------------------Exchange composition------------------------------

X                4.000e-01 mol

	                               Equiv-    Equivalent      Log 
	Species             Moles      alents      Fraction     Gamma

	KX                6.834e-01   6.834e-01   1.708e+00    -0.095
	CaX2              1.616e-01   3.232e-01   8.081e-01    -0.342

-----------------------------Exchange composition------------------------------

X                4.000e-01 mol

	                               Equiv-    Equivalent      Log 
	Species             Moles      alents      Fraction     Gamma

	KX                4.450e-01   4.450e-01   1.112e+00    -0.095
	CaX2              6.174e-02   1.235e-01   3.087e-01    -0.341

-----------------------------Exchange composition------------------------------

X                4.000e-01 mol

	                               Equiv-    Equivalent      Log 
	Species             Moles      alents      Fraction     Gamma

	KX                3.883e-01   3.883e-01   9.708e-01    -0.093
	CaX2              2.660e-02   5.320e-02   1.330e-01    -0.335

-----------------------------Exchange composition------------------------------

X                4.000e-01 mol

	                               Equiv-    Equivalent      Log 
	Species             Moles      alents      Fraction     Gamma

	KX                3.800e-01   3.800e-01   9.500e-01    -0.092
	CaX2              1.448e-02   2.896e-02   7.239e-02    -0.331

-----------------------------Exchange composition------------------------------

X                4.000e-01 mol

	                               Equiv-    Equivalent      Log 
	Species             Moles      alents      Fraction     Gamma

	KX                3.792e-01   3.792e-01   9.481e-01    -0.091
	CaX2              1.092e-02   2.184e-02   5.461e-02    -0.330

-----------------------------Exchange composition------------------------------

X                4.000e-01 mol

	                               Equiv-    Equivalent      Log 
	Species             Moles      alents      Fraction     Gamma

	KX                3.792e-01   3.792e-01   9.481e-01    -0.091
	CaX2              1.040e-02   2.080e-02   5.201e-02    -0.330

-----------------------------Exchange composition------------------------------

X                4.000e-01 mol

	                               Equiv-    Equivalent      Log 
	Species             Moles      alents      Fraction     Gamma

	KX                3.792e-01   3.792e-01   9.481e-01    -0.091
	CaX2              1.039e-02   2.078e-02   5.195e-02    -0.330

-----------------------------Exchange composition------------------------------

X                4.000e-01 mol

	                               Equiv-    Equivalent      Log 
	Species             Moles      alents      Fraction     Gamma

	KX                3.792e-01   3.792e-01   9.481e-01    -0.091
	CaX2              1.039e-02   2.078e-02   5.195e-02    -0.330

Using solution 1.	
Using exchange 1.	
Using reaction 1.	

Reaction 1.	

	  2.500e-02 moles of the following reaction have been added:

	                 Relative
	Reactant            moles

	Ca                   0.50000
	K                   -1.00000

	                 Relative
	Element             moles
	Ca                   0.50000
	K                   -1.00000

-----------------------------Exchange composition------------------------------

X                4.000e-01 mol

	                               Equiv-    Equivalent      Log 
	Species             Moles      alents      Fraction     Gamma

	KX                3.792e-01   3.792e-01   9.481e-01    -0.091
	CaX2              1.039e-02   2.078e-02   5.195e-02    -0.330

-----------------------------Solution composition------------------------------

	Elements           Molality       Moles

	Ca                2.111e-03   2.111e-03
	K                 9.578e-02   9.578e-02

----------------------------Description of solution----------------------------

                                       pH  =   6.996      Charge balance
                                       pe  =  10.929      Adjusted to redox equilibrium
      Specific Conductance (µS/cm,  25°C)  = 6438
                          Density (g/cm³)  =   1.00002
                               Volume (L)  =   1.00381
                        Activity of water  =   0.998
                 Ionic strength (mol/kgw)  =   5.211e-02
                       Mass of water (kg)  =   1.000e+00
                 Total alkalinity (eq/kg)  =   7.391e-09
                         Temperature (°C)  =  25.00
                  Electrical balance (eq)  =   1.000e-01
 Percent error, 100*(Cat-|An|)/(Cat+|An|)  = 100.00
                               Iterations  =  14
                                  Total H  = 1.110124e+02
                                  Total O  = 5.550622e+01

----------------------------Distribution of species----------------------------

                                               Log       Log       Log    mole V
   Species          Molality    Activity  Molality  Activity     Gamma   cm³/mol

   H2O             5.551e+01   9.983e-01     1.744    -0.001     0.000     18.07
   OH-             1.238e-07   1.001e-07    -6.907    -6.999    -0.092     -3.87
   H+              1.184e-07   1.009e-07    -6.927    -6.996    -0.070      0.00
Ca            2.111e-03
   Ca+2            2.111e-03   9.870e-04    -2.676    -3.006    -0.330    -17.61
   CaOH+           1.979e-09   1.621e-09    -8.704    -8.790    -0.087     (0)  
H(0)          1.973e-39
   H2              9.867e-40   9.986e-40   -39.006   -39.001     0.005     28.61
K             9.578e-02
   K+              9.578e-02   7.759e-02    -1.019    -1.110    -0.091      9.17
O(0)          8.234e-15
   O2              4.117e-15   4.166e-15   -14.385   -14.380     0.005     30.40

------------------------------Saturation indices-------------------------------

  Phase               SI** log IAP   log K(298 K,   1 atm)

  H2(g)           -35.90    -39.00   -3.10  H2
  H2O(g)           -1.50     -0.00    1.50  H2O
  O2(g)           -11.49    -14.38   -2.89  O2

**For a gas, SI = log10(fugacity). Fugacity = pressure * phi / 1 atm.
  For ideal gases, phi = 1.

Reaction step 2.

-----------------------------Exchange composition------------------------------

X                4.000e-01 mol

	                               Equiv-    Equivalent      Log 
	Species             Moles      alents      Fraction     Gamma

	KX                1.494e-02   1.494e-02   3.734e-02    -0.104
	CaX2              8.027e-05   1.605e-04   4.013e-04    -0.368

-----------------------------Exchange composition------------------------------

X                4.000e-01 mol

	                               Equiv-    Equivalent      Log 
	Species             Moles      alents      Fraction     Gamma

	KX                1.494e-02   1.494e-02   3.734e-02    -0.104
	CaX2              8.027e-05   1.605e-04   4.013e-04    -0.368

-----------------------------Exchange composition------------------------------

X                4.000e-01 mol

	                               Equiv-    Equivalent      Log 
	Species             Moles      alents      Fraction     Gamma

	KX                1.494e-02   1.494e-02   3.734e-02    -0.104
	CaX2              8.027e-05   1.605e-04   4.013e-04    -0.368

-----------------------------Exchange composition------------------------------

X                4.000e-01 mol

	                               Equiv-    Equivalent      Log 
	Species             Moles      alents      Fraction     Gamma

	KX                1.494e-02   1.494e-02   3.734e-02    -0.104
	CaX2              8.027e-05   1.605e-04   4.013e-04    -0.368

-----------------------------Exchange composition------------------------------

X                4.000e-01 mol

	                               Equiv-    Equivalent      Log 
	Species             Moles      alents      Fraction     Gamma

	KX                1.494e-02   1.494e-02   3.734e-02    -0.104
	CaX2              8.028e-05   1.606e-04   4.014e-04    -0.368

-----------------------------Exchange composition------------------------------

X                4.000e-01 mol

	                               Equiv-    Equivalent      Log 
	Species             Moles      alents      Fraction     Gamma

	KX                1.382e+00   1.382e+00   3.455e+00    -0.103
	CaX2              9.104e-01   1.821e+00   4.552e+00    -0.368

-----------------------------Exchange composition------------------------------

X                4.000e-01 mol

	                               Equiv-    Equivalent      Log 
	Species             Moles      alents      Fraction     Gamma

	KX                6.609e-01   6.609e-01   1.652e+00    -0.099
	CaX2              3.280e-01   6.560e-01   1.640e+00    -0.353

-----------------------------Exchange composition------------------------------

X                4.000e-01 mol

	                               Equiv-    Equivalent      Log 
	Species             Moles      alents      Fraction     Gamma

	KX                4.294e-01   4.294e-01   1.074e+00    -0.098
	CaX2              1.266e-01   2.532e-01   6.331e-01    -0.351

-----------------------------Exchange composition------------------------------

X                4.000e-01 mol

	                               Equiv-    Equivalent      Log 
	Species             Moles      alents      Fraction     Gamma

	KX                3.720e-01   3.720e-01   9.299e-01    -0.095
	CaX2              5.468e-02   1.094e-01   2.734e-01    -0.343

-----------------------------Exchange composition------------------------------

X                4.000e-01 mol

	                               Equiv-    Equivalent      Log 
	Species             Moles      alents      Fraction     Gamma

	KX                3.606e-01   3.606e-01   9.016e-01    -0.093
	CaX2              2.948e-02   5.897e-02   1.474e-01    -0.337

-----------------------------Exchange composition------------------------------

X                4.000e-01 mol

	                               Equiv-    Equivalent      Log 
	Species             Moles      alents      Fraction     Gamma

	KX                3.587e-01   3.587e-01   8.967e-01    -0.093
	CaX2              2.193e-02   4.385e-02   1.096e-01    -0.335

-----------------------------Exchange composition------------------------------

X                4.000e-01 mol

	                               Equiv-    Equivalent      Log 
	Species             Moles      alents      Fraction     Gamma

	KX                3.586e-01   3.586e-01   8.964e-01    -0.093
	CaX2              2.075e-02   4.149e-02   1.037e-01    -0.335

-----------------------------Exchange composition------------------------------

X                4.000e-01 mol

	                               Equiv-    Equivalent      Log 
	Species             Moles      alents      Fraction     Gamma

	KX                3.586e-01   3.586e-01   8.964e-01    -0.093
	CaX2              2.071e-02   4.142e-02   1.036e-01    -0.335

-----------------------------Exchange composition------------------------------

X                4.000e-01 mol

	                               Equiv-    Equivalent      Log 
	Species             Moles      alents      Fraction     Gamma

	KX                3.586e-01   3.586e-01   8.964e-01    -0.093
	CaX2              2.071e-02   4.142e-02   1.036e-01    -0.335

Using solution 1.	
Using exchange 1.	
Using reaction 1.	

Reaction 1.	

	  5.000e-02 moles of the following reaction have been added:

	                 Relative
	Reactant            moles

	Ca                   0.50000
	K                   -1.00000

	                 Relative
	Element             moles
	Ca                   0.50000
	K                   -1.00000

-----------------------------Exchange composition------------------------------

X                4.000e-01 mol

	                               Equiv-    Equivalent      Log 
	Species             Moles      alents      Fraction     Gamma

	KX                3.586e-01   3.586e-01   8.964e-01    -0.093
	CaX2              2.071e-02   4.142e-02   1.036e-01    -0.335

-----------------------------Solution composition------------------------------

	Elements           Molality       Moles

	Ca                4.288e-03   4.288e-03
	K                 9.142e-02   9.142e-02

----------------------------Description of solution----------------------------

                                       pH  =   6.992      Charge balance
                                       pe  =  10.933      Adjusted to redox equilibrium
      Specific Conductance (µS/cm,  25°C)  = 6338
                          Density (g/cm³)  =   1.00002
                               Volume (L)  =   1.00373
                        Activity of water  =   0.998
                 Ionic strength (mol/kgw)  =   5.429e-02
                       Mass of water (kg)  =   1.000e+00
                 Total alkalinity (eq/kg)  =   7.391e-09
                         Temperature (°C)  =  25.00
                  Electrical balance (eq)  =   1.000e-01
 Percent error, 100*(Cat-|An|)/(Cat+|An|)  = 100.00
                               Iterations  =  14
                                  Total H  = 1.110124e+02
                                  Total O  = 5.550622e+01

----------------------------Distribution of species----------------------------

                                               Log       Log       Log    mole V
   Species          Molality    Activity  Molality  Activity     Gamma   cm³/mol

   H2O             5.551e+01   9.984e-01     1.744    -0.001     0.000     18.07
   OH-             1.232e-07   9.925e-08    -6.910    -7.003    -0.094     -3.86
   H+              1.197e-07   1.018e-07    -6.922    -6.992    -0.070      0.00
Ca            4.288e-03
   Ca+2            4.288e-03   1.984e-03    -2.368    -2.703    -0.335    -17.60
   CaOH+           3.954e-09   3.228e-09    -8.403    -8.491    -0.088     (0)  
H(0)          1.974e-39
   H2              9.872e-40   9.996e-40   -39.006   -39.000     0.005     28.61
K             9.142e-02
   K+              9.142e-02   7.382e-02    -1.039    -1.132    -0.093      9.18
O(0)          8.213e-15
   O2              4.107e-15   4.158e-15   -14.387   -14.381     0.005     30.40

------------------------------Saturation indices-------------------------------

  Phase               SI** log IAP   log K(298 K,   1 atm)

  H2(g)           -35.90    -39.00   -3.10  H2
  H2O(g)           -1.50     -0.00    1.50  H2O
  O2(g)           -11.49    -14.38   -2.89  O2

**For a gas, SI = log10(fugacity). Fugacity = pressure * phi / 1 atm.
  For ideal gases, phi = 1.

Reaction step 3.

-----------------------------Exchange composition------------------------------

X                4.000e-01 mol

	                               Equiv-    Equivalent      Log 
	Species             Moles      alents      Fraction     Gamma

	KX                1.513e-02   1.513e-02   3.783e-02    -0.109
	CaX2              1.253e-04   2.506e-04   6.264e-04    -0.385

-----------------------------Exchange composition------------------------------

X                4.000e-01 mol

	                               Equiv-    Equivalent      Log 
	Species             Moles      alents      Fraction     Gamma

	KX                1.513e-02   1.513e-02   3.783e-02    -0.109
	CaX2              1.253e-04   2.506e-04   6.264e-04    -0.385

-----------------------------Exchange composition------------------------------

X                4.000e-01 mol

	                               Equiv-    Equivalent      Log 
	Species             Moles      alents      Fraction     Gamma

	KX                1.513e-02   1.513e-02   3.783e-02    -0.109
	CaX2              1.253e-04   2.506e-04   6.264e-04    -0.385

-----------------------------Exchange composition------------------------------

X                4.000e-01 mol

	                               Equiv-    Equivalent      Log 
	Species             Moles      alents      Fraction     Gamma

	KX                1.513e-02   1.513e-02   3.783e-02    -0.109
	CaX2              1.253e-04   2.506e-04   6.264e-04    -0.385

-----------------------------Exchange composition------------------------------

X                4.000e-01 mol

	                               Equiv-    Equivalent      Log 
	Species             Moles      alents      Fraction     Gamma

	KX                1.513e-02   1.513e-02   3.783e-02    -0.109
	CaX2              1.253e-04   2.506e-04   6.264e-04    -0.385

-----------------------------Exchange composition------------------------------

X                4.000e-01 mol

	                               Equiv-    Equivalent      Log 
	Species             Moles      alents      Fraction     Gamma

	KX                1.347e+00   1.347e+00   3.368e+00    -0.109
	CaX2              1.405e+00   2.810e+00   7.025e+00    -0.385

-----------------------------Exchange composition------------------------------

X                4.000e-01 mol

	                               Equiv-    Equivalent      Log 
	Species             Moles      alents      Fraction     Gamma

	KX                6.367e-01   6.367e-01   1.592e+00    -0.101
	CaX2              4.963e-01   9.927e-01   2.482e+00    -0.361

-----------------------------Exchange composition------------------------------

X                4.000e-01 mol

	                               Equiv-    Equivalent      Log 
	Species             Moles      alents      Fraction     Gamma

	KX                4.118e-01   4.118e-01   1.029e+00    -0.100
	CaX2              1.929e-01   3.858e-01   9.645e-01    -0.358

-----------------------------Exchange composition------------------------------

X                4.000e-01 mol

	                               Equiv-    Equivalent      Log 
	Species             Moles      alents      Fraction     Gamma

	KX                3.544e-01   3.544e-01   8.861e-01    -0.098
	CaX2              8.338e-02   1.668e-01   4.169e-01    -0.350

-----------------------------Exchange composition------------------------------

X                4.000e-01 mol

	                               Equiv-    Equivalent      Log 
	Species             Moles      alents      Fraction     Gamma

	KX                3.414e-01   3.414e-01   8.534e-01    -0.095
	CaX2              4.471e-02   8.943e-02   2.236e-01    -0.342

-----------------------------Exchange composition------------------------------

X                4.000e-01 mol

	                               Equiv-    Equivalent      Log 
	Species             Moles      alents      Fraction     Gamma

	KX                3.383e-01   3.383e-01   8.458e-01    -0.094
	CaX2              3.296e-02   6.592e-02   1.648e-01    -0.340

-----------------------------Exchange composition------------------------------

X                4.000e-01 mol

	                               Equiv-    Equivalent      Log 
	Species             Moles      alents      Fraction     Gamma

	KX                3.381e-01   3.381e-01   8.451e-01    -0.094
	CaX2              3.104e-02   6.207e-02   1.552e-01    -0.340

-----------------------------Exchange composition------------------------------

X                4.000e-01 mol

	                               Equiv-    Equivalent      Log 
	Species             Moles      alents      Fraction     Gamma

	KX                3.381e-01   3.381e-01   8.451e-01    -0.094
	CaX2              3.097e-02   6.195e-02   1.549e-01    -0.339

-----------------------------Exchange composition------------------------------

X                4.000e-01 mol

	                               Equiv-    Equivalent      Log 
	Species             Moles      alents      Fraction     Gamma

	KX                3.381e-01   3.381e-01   8.451e-01    -0.094
	CaX2              3.097e-02   6.195e-02   1.549e-01    -0.339

Using solution 1.	
Using exchange 1.	
Using reaction 1.	

Reaction 1.	

	  7.500e-02 moles of the following reaction have been added:

	                 Relative
	Reactant            moles

	Ca                   0.50000
	K                   -1.00000

	                 Relative
	Element             moles
	Ca                   0.50000
	K                   -1.00000

-----------------------------Exchange composition------------------------------

X                4.000e-01 mol

	                               Equiv-    Equivalent      Log 
	Species             Moles      alents      Fraction     Gamma

	KX                3.381e-01   3.381e-01   8.451e-01    -0.094
	CaX2              3.097e-02   6.195e-02   1.549e-01    -0.339

-----------------------------Solution composition------------------------------

	Elements           Molality       Moles

	Ca                6.526e-03   6.526e-03
	K                 8.695e-02   8.695e-02

----------------------------Description of solution----------------------------

                                       pH  =   6.988      Charge balance
                                       pe  =  10.937      Adjusted to redox equilibrium
      Specific Conductance (µS/cm,  25°C)  = 6235
                          Density (g/cm³)  =   1.00001
                               Volume (L)  =   1.00365
                        Activity of water  =   0.998
                 Ionic strength (mol/kgw)  =   5.653e-02
                       Mass of water (kg)  =   1.000e+00
                 Total alkalinity (eq/kg)  =   7.391e-09
                         Temperature (°C)  =  25.00
                  Electrical balance (eq)  =   1.000e-01
 Percent error, 100*(Cat-|An|)/(Cat+|An|)  = 100.00
                               Iterations  =  14
                                  Total H  = 1.110124e+02
                                  Total O  = 5.550622e+01

----------------------------Distribution of species----------------------------

                                               Log       Log       Log    mole V
   Species          Molality    Activity  Molality  Activity     Gamma   cm³/mol

   H2O             5.551e+01   9.984e-01     1.744    -0.001     0.000     18.07
   OH-             1.225e-07   9.838e-08    -6.912    -7.007    -0.095     -3.85
   H+              1.210e-07   1.027e-07    -6.917    -6.988    -0.071      0.00
Ca            6.526e-03
   Ca+2            6.526e-03   2.986e-03    -2.185    -2.525    -0.339    -17.59
   CaOH+           5.917e-09   4.817e-09    -8.228    -8.317    -0.089     (0)  
H(0)          1.972e-39
   H2              9.862e-40   9.992e-40   -39.006   -39.000     0.006     28.61
K             8.695e-02
   K+              8.695e-02   6.996e-02    -1.061    -1.155    -0.094      9.18
O(0)          8.217e-15
   O2              4.109e-15   4.162e-15   -14.386   -14.381     0.006     30.40

------------------------------Saturation indices-------------------------------

  Phase               SI** log IAP   log K(298 K,   1 atm)

  H2(g)           -35.90    -39.00   -3.10  H2
  H2O(g)           -1.50     -0.00    1.50  H2O
  O2(g)           -11.49    -14.38   -2.89  O2

**For a gas, SI = log10(fugacity). Fugacity = pressure * phi / 1 atm.
  For ideal gases, phi = 1.

Reaction step 4.

-----------------------------Exchange composition------------------------------

X                4.000e-01 mol

	                               Equiv-    Equivalent      Log 
	Species             Moles      alents      Fraction     Gamma

	KX                1.531e-02   1.531e-02   3.828e-02    -0.114
	CaX2              1.730e-04   3.460e-04   8.651e-04    -0.401

-----------------------------Exchange composition------------------------------

X                4.000e-01 mol

	                               Equiv-    Equivalent      Log 
	Species             Moles      alents      Fraction     Gamma

	KX                1.531e-02   1.531e-02   3.828e-02    -0.114
	CaX2              1.730e-04   3.460e-04   8.651e-04    -0.401

-----------------------------Exchange composition------------------------------

X                4.000e-01 mol

	                               Equiv-    Equivalent      Log 
	Species             Moles      alents      Fraction     Gamma

	KX                1.531e-02   1.531e-02   3.828e-02    -0.114
	CaX2              1.730e-04   3.460e-04   8.651e-04    -0.401

-----------------------------Exchange composition------------------------------

X                4.000e-01 mol

	                               Equiv-    Equivalent      Log 
	Species             Moles      alents      Fraction     Gamma

	KX                1.531e-02   1.531e-02   3.828e-02    -0.114
	CaX2              1.730e-04   3.460e-04   8.651e-04    -0.401

-----------------------------Exchange composition------------------------------

X                4.000e-01 mol

	                               Equiv-    Equivalent      Log 
	Species             Moles      alents      Fraction     Gamma

	KX                1.531e-02   1.531e-02   3.828e-02    -0.114
	CaX2              1.730e-04   3.461e-04   8.651e-04    -0.401

-----------------------------Exchange composition------------------------------

X                4.000e-01 mol

	                               Equiv-    Equivalent      Log 
	Species             Moles      alents      Fraction     Gamma

	KX                1.312e+00   1.312e+00   3.279e+00    -0.114
	CaX2              1.922e+00   3.843e+00   9.608e+00    -0.400

-----------------------------Exchange composition------------------------------

X                4.000e-01 mol

	                               Equiv-    Equivalent      Log 
	Species             Moles      alents      Fraction     Gamma

	KX                6.117e-01   6.117e-01   1.529e+00    -0.103
	CaX2              6.655e-01   1.331e+00   3.327e+00    -0.367

-----------------------------Exchange composition------------------------------

X                4.000e-01 mol

	                               Equiv-    Equivalent      Log 
	Species             Moles      alents      Fraction     Gamma

	KX                3.929e-01   3.929e-01   9.823e-01    -0.102
	CaX2              2.598e-01   5.197e-01   1.299e+00    -0.364

-----------------------------Exchange composition------------------------------

X                4.000e-01 mol

	                               Equiv-    Equivalent      Log 
	Species             Moles      alents      Fraction     Gamma

	KX                3.361e-01   3.361e-01   8.402e-01    -0.100
	CaX2              1.123e-01   2.246e-01   5.616e-01    -0.356

-----------------------------Exchange composition------------------------------

X                4.000e-01 mol

	                               Equiv-    Equivalent      Log 
	Species             Moles      alents      Fraction     Gamma

	KX                3.221e-01   3.221e-01   8.051e-01    -0.097
	CaX2              6.002e-02   1.200e-01   3.001e-01    -0.348

-----------------------------Exchange composition------------------------------

X                4.000e-01 mol

	                               Equiv-    Equivalent      Log 
	Species             Moles      alents      Fraction     Gamma

	KX                3.181e-01   3.181e-01   7.953e-01    -0.096
	CaX2              4.398e-02   8.796e-02   2.199e-01    -0.345

-----------------------------Exchange composition------------------------------

X                4.000e-01 mol

	                               Equiv-    Equivalent      Log 
	Species             Moles      alents      Fraction     Gamma

	KX                3.176e-01   3.176e-01   7.941e-01    -0.096
	CaX2              4.128e-02   8.256e-02   2.064e-01    -0.344

-----------------------------Exchange composition------------------------------

X                4.000e-01 mol

	                               Equiv-    Equivalent      Log 
	Species             Moles      alents      Fraction     Gamma

	KX                3.176e-01   3.176e-01   7.941e-01    -0.096
	CaX2              4.118e-02   8.236e-02   2.059e-01    -0.344

-----------------------------Exchange composition------------------------------

X                4.000e-01 mol

	                               Equiv-    Equivalent      Log 
	Species             Moles      alents      Fraction     Gamma

	KX                3.176e-01   3.176e-01   7.941e-01    -0.096
	CaX2              4.118e-02   8.236e-02   2.059e-01    -0.344

Using solution 1.	
Using exchange 1.	
Using reaction 1.	

Reaction 1.	

	  1.000e-01 moles of the following reaction have been added:

	                 Relative
	Reactant            moles

	Ca                   0.50000
	K                   -1.00000

	                 Relative
	Element             moles
	Ca                   0.50000
	K                   -1.00000

-----------------------------Exchange composition------------------------------

X                4.000e-01 mol

	                               Equiv-    Equivalent      Log 
	Species             Moles      alents      Fraction     Gamma

	KX                3.176e-01   3.176e-01   7.941e-01    -0.096
	CaX2              4.118e-02   8.236e-02   2.059e-01    -0.344

-----------------------------Solution composition------------------------------

	Elements           Molality       Moles

	Ca                8.818e-03   8.818e-03
	K                 8.236e-02   8.236e-02

----------------------------Description of solution----------------------------

                                       pH  =   6.985      Charge balance
                                       pe  =  10.941      Adjusted to redox equilibrium
      Specific Conductance (µS/cm,  25°C)  = 6130
                          Density (g/cm³)  =   1.00001
                               Volume (L)  =   1.00357
                        Activity of water  =   0.998
                 Ionic strength (mol/kgw)  =   5.882e-02
                       Mass of water (kg)  =   1.000e+00
                 Total alkalinity (eq/kg)  =   7.391e-09
                         Temperature (°C)  =  25.00
                  Electrical balance (eq)  =   1.000e-01
 Percent error, 100*(Cat-|An|)/(Cat+|An|)  = 100.00
                               Iterations  =  14
                                  Total H  = 1.110124e+02
                                  Total O  = 5.550622e+01

----------------------------Distribution of species----------------------------

                                               Log       Log       Log    mole V
   Species          Molality    Activity  Molality  Activity     Gamma   cm³/mol

   H2O             5.551e+01   9.984e-01     1.744    -0.001     0.000     18.07
   H+              1.223e-07   1.036e-07    -6.912    -6.985    -0.072      0.00
   OH-             1.219e-07   9.752e-08    -6.914    -7.011    -0.097     -3.85
Ca            8.818e-03
   Ca+2            8.818e-03   3.993e-03    -2.055    -2.399    -0.344    -17.58
   CaOH+           7.865e-09   6.384e-09    -8.104    -8.195    -0.091     (0)  
H(0)          1.971e-39
   H2              9.853e-40   9.988e-40   -39.006   -39.001     0.006     28.61
K             8.236e-02
   K+              8.236e-02   6.605e-02    -1.084    -1.180    -0.096      9.18
O(0)          8.220e-15
   O2              4.110e-15   4.166e-15   -14.386   -14.380     0.006     30.40

------------------------------Saturation indices-------------------------------

  Phase               SI** log IAP   log K(298 K,   1 atm)

  H2(g)           -35.90    -39.00   -3.10  H2
  H2O(g)           -1.50     -0.00    1.50  H2O
  O2(g)           -11.49    -14.38   -2.89  O2

**For a gas, SI = log10(fugacity). Fugacity = pressure * phi / 1 atm.
  For ideal gases, phi = 1.

Reaction step 5.

-----------------------------Exchange composition------------------------------

X                4.000e-01 mol

	                               Equiv-    Equivalent      Log 
	Species             Moles      alents      Fraction     Gamma

	KX                1.547e-02   1.547e-02   3.869e-02    -0.119
	CaX2              2.232e-04   4.464e-04   1.116e-03    -0.414

-----------------------------Exchange composition------------------------------

X                4.000e-01 mol

	                               Equiv-    Equivalent      Log 
	Species             Moles      alents      Fraction     Gamma

	KX                1.547e-02   1.547e-02   3.869e-02    -0.119
	CaX2              2.232e-04   4.464e-04   1.116e-03    -0.414

-----------------------------Exchange composition------------------------------

X                4.000e-01 mol

	                               Equiv-    Equivalent      Log 
	Species             Moles      alents      Fraction     Gamma

	KX                1.547e-02   1.547e-02   3.869e-02    -0.119
	CaX2              2.232e-04   4.464e-04   1.116e-03    -0.414

-----------------------------Exchange composition------------------------------

X                4.000e-01 mol

	                               Equiv-    Equivalent      Log 
	Species             Moles      alents      Fraction     Gamma

	KX                1.547e-02   1.547e-02   3.869e-02    -0.119
	CaX2              2.232e-04   4.464e-04   1.116e-03    -0.414

-----------------------------Exchange composition------------------------------

X                4.000e-01 mol

	                               Equiv-    Equivalent      Log 
	Species             Moles      alents      Fraction     Gamma

	KX                1.548e-02   1.548e-02   3.869e-02    -0.119
	CaX2              2.232e-04   4.464e-04   1.116e-03    -0.414

-----------------------------Exchange composition------------------------------

X                4.000e-01 mol

	                               Equiv-    Equivalent      Log 
	Species             Moles      alents      Fraction     Gamma

	KX                1.276e+00   1.276e+00   3.190e+00    -0.119
	CaX2              2.458e+00   4.916e+00   1.229e+01    -0.414

-----------------------------Exchange composition------------------------------

X                4.000e-01 mol

	                               Equiv-    Equivalent      Log 
	Species             Moles      alents      Fraction     Gamma

	KX                5.864e-01   5.864e-01   1.466e+00    -0.105
	CaX2              8.350e-01   1.670e+00   4.175e+00    -0.372

-----------------------------Exchange composition------------------------------

X                4.000e-01 mol

	                               Equiv-    Equivalent      Log 
	Species             Moles      alents      Fraction     Gamma

	KX                3.733e-01   3.733e-01   9.334e-01    -0.104
	CaX2              3.270e-01   6.541e-01   1.635e+00    -0.369

-----------------------------Exchange composition------------------------------

X                4.000e-01 mol

	                               Equiv-    Equivalent      Log 
	Species             Moles      alents      Fraction     Gamma

	KX                3.171e-01   3.171e-01   7.927e-01    -0.101
	CaX2              1.413e-01   2.827e-01   7.066e-01    -0.361

-----------------------------Exchange composition------------------------------

X                4.000e-01 mol

	                               Equiv-    Equivalent      Log 
	Species             Moles      alents      Fraction     Gamma

	KX                3.026e-01   3.026e-01   7.565e-01    -0.099
	CaX2              7.533e-02   1.507e-01   3.767e-01    -0.353

-----------------------------Exchange composition------------------------------

X                4.000e-01 mol

	                               Equiv-    Equivalent      Log 
	Species             Moles      alents      Fraction     Gamma

	KX                2.980e-01   2.980e-01   7.450e-01    -0.097
	CaX2              5.498e-02   1.100e-01   2.749e-01    -0.349

-----------------------------Exchange composition------------------------------

X                4.000e-01 mol

	                               Equiv-    Equivalent      Log 
	Species             Moles      alents      Fraction     Gamma

	KX                2.973e-01   2.973e-01   7.433e-01    -0.097
	CaX2              5.147e-02   1.029e-01   2.574e-01    -0.349

-----------------------------Exchange composition------------------------------

X                4.000e-01 mol

	                               Equiv-    Equivalent      Log 
	Species             Moles      alents      Fraction     Gamma

	KX                2.973e-01   2.973e-01   7.433e-01    -0.097
	CaX2              5.134e-02   1.027e-01   2.567e-01    -0.349

-----------------------------Exchange composition------------------------------

X                4.000e-01 mol

	                               Equiv-    Equivalent      Log 
	Species             Moles      alents      Fraction     Gamma

	KX                2.973e-01   2.973e-01   7.433e-01    -0.097
	CaX2              5.134e-02   1.027e-01   2.567e-01    -0.349

Using solution 1.	
Using exchange 1.	
Using reaction 1.	

Reaction 1.	

	  1.250e-01 moles of the following reaction have been added:

	                 Relative
	Reactant            moles

	Ca                   0.50000
	K                   -1.00000

	                 Relative
	Element             moles
	Ca                   0.50000
	K                   -1.00000

-----------------------------Exchange composition------------------------------

X                4.000e-01 mol

	                               Equiv-    Equivalent      Log 
	Species             Moles      alents      Fraction     Gamma

	KX                2.973e-01   2.973e-01   7.433e-01    -0.097
	CaX2              5.134e-02   1.027e-01   2.567e-01    -0.349

-----------------------------Solution composition------------------------------

	Elements           Molality       Moles

	Ca                1.116e-02   1.116e-02
	K                 7.768e-02   7.768e-02

----------------------------Description of solution----------------------------

                                       pH  =   6.981      Charge balance
                                       pe  =  10.944      Adjusted to redox equilibrium
      Specific Conductance (µS/cm,  25°C)  = 6022
                          Density (g/cm³)  =   1.00000
                               Volume (L)  =   1.00348
                        Activity of water  =   0.998
                 Ionic strength (mol/kgw)  =   6.116e-02
                       Mass of water (kg)  =   1.000e+00
                 Total alkalinity (eq/kg)  =   7.391e-09
                         Temperature (°C)  =  25.00
                  Electrical balance (eq)  =   1.000e-01
 Percent error, 100*(Cat-|An|)/(Cat+|An|)  = 100.00
                               Iterations  =  14
                                  Total H  = 1.110124e+02
                                  Total O  = 5.550622e+01

----------------------------Distribution of species----------------------------

                                               Log       Log       Log    mole V
   Species          Molality    Activity  Molality  Activity     Gamma   cm³/mol

   H2O             5.551e+01   9.985e-01     1.744    -0.001     0.000     18.07
   H+              1.236e-07   1.045e-07    -6.908    -6.981    -0.073      0.00
   OH-             1.212e-07   9.669e-08    -6.916    -7.015    -0.098     -3.84
Ca            1.116e-02
   Ca+2            1.116e-02   5.000e-03    -1.952    -2.301    -0.349    -17.57
   CaOH+           9.792e-09   7.927e-09    -8.009    -8.101    -0.092     (0)  
H(0)          1.970e-39
   H2              9.848e-40   9.988e-40   -39.007   -39.001     0.006     28.61
K             7.768e-02
   K+              7.768e-02   6.209e-02    -1.110    -1.207    -0.097      9.19
O(0)          8.216e-15
   O2              4.108e-15   4.166e-15   -14.386   -14.380     0.006     30.40

------------------------------Saturation indices-------------------------------

  Phase               SI** log IAP   log K(298 K,   1 atm)

  H2(g)           -35.90    -39.00   -3.10  H2
  H2O(g)           -1.50     -0.00    1.50  H2O
  O2(g)           -11.49    -14.38   -2.89  O2

**For a gas, SI = log10(fugacity). Fugacity = pressure * phi / 1 atm.
  For ideal gases, phi = 1.

Reaction step 6.

-----------------------------Exchange composition------------------------------

X                4.000e-01 mol

	                               Equiv-    Equivalent      Log 
	Species             Moles      alents      Fraction     Gamma

	KX                1.563e-02   1.563e-02   3.907e-02    -0.123
	CaX2              2.755e-04   5.511e-04   1.378e-03    -0.427

-----------------------------Exchange composition------------------------------

X                4.000e-01 mol

	                               Equiv-    Equivalent      Log 
	Species             Moles      alents      Fraction     Gamma

	KX                1.563e-02   1.563e-02   3.907e-02    -0.123
	CaX2              2.755e-04   5.511e-04   1.378e-03    -0.427

-----------------------------Exchange composition------------------------------

X                4.000e-01 mol

	                               Equiv-    Equivalent      Log 
	Species             Moles      alents      Fraction     Gamma

	KX                1.563e-02   1.563e-02   3.907e-02    -0.123
	CaX2              2.755e-04   5.511e-04   1.378e-03    -0.427

-----------------------------Exchange composition------------------------------

X                4.000e-01 mol

	                               Equiv-    Equivalent      Log 
	Species             Moles      alents      Fraction     Gamma

	KX                1.563e-02   1.563e-02   3.907e-02    -0.123
	CaX2              2.755e-04   5.511e-04   1.378e-03    -0.427

-----------------------------Exchange composition------------------------------

X                4.000e-01 mol

	                               Equiv-    Equivalent      Log 
	Species             Moles      alents      Fraction     Gamma

	KX                1.563e-02   1.563e-02   3.907e-02    -0.123
	CaX2              2.756e-04   5.511e-04   1.378e-03    -0.427

-----------------------------Exchange composition------------------------------

X                4.000e-01 mol

	                               Equiv-    Equivalent      Log 
	Species             Moles      alents      Fraction     Gamma

	KX                1.240e+00   1.240e+00   3.099e+00    -0.123
	CaX2              3.012e+00   6.024e+00   1.506e+01    -0.426

-----------------------------Exchange composition------------------------------

X                4.000e-01 mol

	                               Equiv-    Equivalent      Log 
	Species             Moles      alents      Fraction     Gamma

	KX                5.611e-01   5.611e-01   1.403e+00    -0.106
	CaX2              1.005e+00   2.009e+00   5.023e+00    -0.376

-----------------------------Exchange composition------------------------------

X                4.000e-01 mol

	                               Equiv-    Equivalent      Log 
	Species             Moles      alents      Fraction     Gamma

	KX                3.534e-01   3.534e-01   8.834e-01    -0.105
	CaX2              3.944e-01   7.887e-01   1.972e+00    -0.373

-----------------------------Exchange composition------------------------------

X                4.000e-01 mol

	                               Equiv-    Equivalent      Log 
	Species             Moles      alents      Fraction     Gamma

	KX                2.976e-01   2.976e-01   7.441e-01    -0.103
	CaX2              1.703e-01   3.407e-01   8.516e-01    -0.366

-----------------------------Exchange composition------------------------------

X                4.000e-01 mol

	                               Equiv-    Equivalent      Log 
	Species             Moles      alents      Fraction     Gamma

	KX                2.830e-01   2.830e-01   7.075e-01    -0.100
	CaX2              9.061e-02   1.812e-01   4.530e-01    -0.358

-----------------------------Exchange composition------------------------------

X                4.000e-01 mol

	                               Equiv-    Equivalent      Log 
	Species             Moles      alents      Fraction     Gamma

	KX                2.779e-01   2.779e-01   6.948e-01    -0.099
	CaX2              6.594e-02   1.319e-01   3.297e-01    -0.354

-----------------------------Exchange composition------------------------------

X                4.000e-01 mol

	                               Equiv-    Equivalent      Log 
	Species             Moles      alents      Fraction     Gamma

	KX                2.771e-01   2.771e-01   6.928e-01    -0.099
	CaX2              6.163e-02   1.233e-01   3.081e-01    -0.353

-----------------------------Exchange composition------------------------------

X                4.000e-01 mol

	                               Equiv-    Equivalent      Log 
	Species             Moles      alents      Fraction     Gamma

	KX                2.771e-01   2.771e-01   6.927e-01    -0.099
	CaX2              6.145e-02   1.229e-01   3.073e-01    -0.353

-----------------------------Exchange composition------------------------------

X                4.000e-01 mol

	                               Equiv-    Equivalent      Log 
	Species             Moles      alents      Fraction     Gamma

	KX                2.771e-01   2.771e-01   6.927e-01    -0.099
	CaX2              6.145e-02   1.229e-01   3.073e-01    -0.353

Using solution 1.	
Using exchange 1.	
Using reaction 1.	

Reaction 1.	

	  1.500e-01 moles of the following reaction have been added:

	                 Relative
	Reactant            moles

	Ca                   0.50000
	K                   -1.00000

	                 Relative
	Element             moles
	Ca                   0.50000
	K                   -1.00000

-----------------------------Exchange composition------------------------------

X                4.000e-01 mol

	                               Equiv-    Equivalent      Log 
	Species             Moles      alents      Fraction     Gamma

	KX                2.771e-01   2.771e-01   6.927e-01    -0.099
	CaX2              6.145e-02   1.229e-01   3.073e-01    -0.353

-----------------------------Solution composition------------------------------

	Elements           Molality       Moles

	Ca                1.355e-02   1.355e-02
	K                 7.290e-02   7.290e-02

----------------------------Description of solution----------------------------

                                       pH  =   6.977      Charge balance
                                       pe  =  10.949      Adjusted to redox equilibrium
      Specific Conductance (µS/cm,  25°C)  = 5912
                          Density (g/cm³)  =   1.00000
                               Volume (L)  =   1.00340
                        Activity of water  =   0.999
                 Ionic strength (mol/kgw)  =   6.355e-02
                       Mass of water (kg)  =   1.000e+00
                 Total alkalinity (eq/kg)  =   7.391e-09
                         Temperature (°C)  =  25.00
                  Electrical balance (eq)  =   1.000e-01
 Percent error, 100*(Cat-|An|)/(Cat+|An|)  = 100.00
                               Iterations  =  14
                                  Total H  = 1.110124e+02
                                  Total O  = 5.550622e+01

----------------------------Distribution of species----------------------------

                                               Log       Log       Log    mole V
   Species          Molality    Activity  Molality  Activity     Gamma   cm³/mol

   H2O             5.551e+01   9.985e-01     1.744    -0.001     0.000     18.07
   H+              1.249e-07   1.054e-07    -6.903    -6.977    -0.074      0.00
   OH-             1.206e-07   9.587e-08    -6.919    -7.018    -0.100     -3.83
Ca            1.355e-02
   Ca+2            1.355e-02   6.007e-03    -1.868    -2.221    -0.353    -17.56
   CaOH+           1.170e-08   9.443e-09    -7.932    -8.025    -0.093     (0)  
H(0)          1.966e-39
   H2              9.828e-40   9.973e-40   -39.008   -39.001     0.006     28.61
K             7.290e-02
   K+              7.290e-02   5.808e-02    -1.137    -1.236    -0.099      9.19
O(0)          8.237e-15
   O2              4.118e-15   4.179e-15   -14.385   -14.379     0.006     30.40

------------------------------Saturation indices-------------------------------

  Phase               SI** log IAP   log K(298 K,   1 atm)

  H2(g)           -35.90    -39.00   -3.10  H2
  H2O(g)           -1.50     -0.00    1.50  H2O
  O2(g)           -11.49    -14.38   -2.89  O2

**For a gas, SI = log10(fugacity). Fugacity = pressure * phi / 1 atm.
  For ideal gases, phi = 1.

Reaction step 7.

-----------------------------Exchange composition------------------------------

X                4.000e-01 mol

	                               Equiv-    Equivalent      Log 
	Species             Moles      alents      Fraction     Gamma

	KX                1.577e-02   1.577e-02   3.943e-02    -0.127
	CaX2              3.299e-04   6.598e-04   1.649e-03    -0.438

-----------------------------Exchange composition------------------------------

X                4.000e-01 mol

	                               Equiv-    Equivalent      Log 
	Species             Moles      alents      Fraction     Gamma

	KX                1.577e-02   1.577e-02   3.943e-02    -0.127
	CaX2              3.299e-04   6.598e-04   1.649e-03    -0.438

-----------------------------Exchange composition------------------------------

X                4.000e-01 mol

	                               Equiv-    Equivalent      Log 
	Species             Moles      alents      Fraction     Gamma

	KX                1.577e-02   1.577e-02   3.943e-02    -0.127
	CaX2              3.299e-04   6.598e-04   1.649e-03    -0.438

-----------------------------Exchange composition------------------------------

X                4.000e-01 mol

	                               Equiv-    Equivalent      Log 
	Species             Moles      alents      Fraction     Gamma

	KX                1.577e-02   1.577e-02   3.943e-02    -0.127
	CaX2              3.299e-04   6.598e-04   1.649e-03    -0.438

-----------------------------Exchange composition------------------------------

X                4.000e-01 mol

	                               Equiv-    Equivalent      Log 
	Species             Moles      alents      Fraction     Gamma

	KX                1.577e-02   1.577e-02   3.943e-02    -0.127
	CaX2              3.299e-04   6.598e-04   1.650e-03    -0.438

-----------------------------Exchange composition------------------------------

X                4.000e-01 mol

	                               Equiv-    Equivalent      Log 
	Species             Moles      alents      Fraction     Gamma

	KX                1.203e+00   1.203e+00   3.008e+00    -0.127
	CaX2              3.582e+00   7.164e+00   1.791e+01    -0.437

-----------------------------Exchange composition------------------------------

X                4.000e-01 mol

	                               Equiv-    Equivalent      Log 
	Species             Moles      alents      Fraction     Gamma

	KX                5.361e-01   5.361e-01   1.340e+00    -0.107
	CaX2              1.174e+00   2.349e+00   5.872e+00    -0.380

-----------------------------Exchange composition------------------------------

X                4.000e-01 mol

	                               Equiv-    Equivalent      Log 
	Species             Moles      alents      Fraction     Gamma

	KX                3.332e-01   3.332e-01   8.329e-01    -0.106
	CaX2              4.617e-01   9.234e-01   2.309e+00    -0.377

-----------------------------Exchange composition------------------------------

X                4.000e-01 mol

	                               Equiv-    Equivalent      Log 
	Species             Moles      alents      Fraction     Gamma

	KX                2.779e-01   2.779e-01   6.947e-01    -0.104
	CaX2              1.993e-01   3.985e-01   9.964e-01    -0.370

-----------------------------Exchange composition------------------------------

X                4.000e-01 mol

	                               Equiv-    Equivalent      Log 
	Species             Moles      alents      Fraction     Gamma

	KX                2.633e-01   2.633e-01   6.582e-01    -0.102
	CaX2              1.058e-01   2.117e-01   5.291e-01    -0.363

-----------------------------Exchange composition------------------------------

X                4.000e-01 mol

	                               Equiv-    Equivalent      Log 
	Species             Moles      alents      Fraction     Gamma

	KX                2.579e-01   2.579e-01   6.448e-01    -0.100
	CaX2              7.685e-02   1.537e-01   3.842e-01    -0.358

-----------------------------Exchange composition------------------------------

X                4.000e-01 mol

	                               Equiv-    Equivalent      Log 
	Species             Moles      alents      Fraction     Gamma

	KX                2.570e-01   2.570e-01   6.425e-01    -0.100
	CaX2              7.174e-02   1.435e-01   3.587e-01    -0.358

-----------------------------Exchange composition------------------------------

X                4.000e-01 mol

	                               Equiv-    Equivalent      Log 
	Species             Moles      alents      Fraction     Gamma

	KX                2.570e-01   2.570e-01   6.424e-01    -0.100
	CaX2              7.152e-02   1.430e-01   3.576e-01    -0.358

-----------------------------Exchange composition------------------------------

X                4.000e-01 mol

	                               Equiv-    Equivalent      Log 
	Species             Moles      alents      Fraction     Gamma

	KX                2.570e-01   2.570e-01   6.424e-01    -0.100
	CaX2              7.152e-02   1.430e-01   3.576e-01    -0.358

Using solution 1.	
Using exchange 1.	
Using reaction 1.	

Reaction 1.	

	  1.750e-01 moles of the following reaction have been added:

	                 Relative
	Reactant            moles

	Ca                   0.50000
	K                   -1.00000

	                 Relative
	Element             moles
	Ca                   0.50000
	K                   -1.00000

-----------------------------Exchange composition------------------------------

X                4.000e-01 mol

	                               Equiv-    Equivalent      Log 
	Species             Moles      alents      Fraction     Gamma

	KX                2.570e-01   2.570e-01   6.424e-01    -0.100
	CaX2              7.152e-02   1.430e-01   3.576e-01    -0.358

-----------------------------Solution composition------------------------------

	Elements           Molality       Moles

	Ca                1.598e-02   1.598e-02
	K                 6.805e-02   6.805e-02

----------------------------Description of solution----------------------------

                                       pH  =   6.973      Charge balance
                                       pe  =  10.953      Adjusted to redox equilibrium
      Specific Conductance (µS/cm,  25°C)  = 5799
                          Density (g/cm³)  =   0.99999
                               Volume (L)  =   1.00331
                        Activity of water  =   0.999
                 Ionic strength (mol/kgw)  =   6.598e-02
                       Mass of water (kg)  =   1.000e+00
                 Total alkalinity (eq/kg)  =   7.391e-09
                         Temperature (°C)  =  25.00
                  Electrical balance (eq)  =   1.000e-01
 Percent error, 100*(Cat-|An|)/(Cat+|An|)  = 100.00
                               Iterations  =  14
                                  Total H  = 1.110124e+02
                                  Total O  = 5.550622e+01

----------------------------Distribution of species----------------------------

                                               Log       Log       Log    mole V
   Species          Molality    Activity  Molality  Activity     Gamma   cm³/mol

   H2O             5.551e+01   9.986e-01     1.744    -0.001     0.000     18.07
   H+              1.262e-07   1.063e-07    -6.899    -6.973    -0.074      0.00
   OH-             1.200e-07   9.507e-08    -6.921    -7.022    -0.101     -3.82
Ca            1.598e-02
   Ca+2            1.598e-02   7.012e-03    -1.797    -2.154    -0.358    -17.55
   CaOH+           1.358e-08   1.093e-08    -7.867    -7.961    -0.094     (0)  
H(0)          1.960e-39
   H2              9.802e-40   9.952e-40   -39.009   -39.002     0.007     28.61
K             6.805e-02
   K+              6.805e-02   5.403e-02    -1.167    -1.267    -0.100      9.19
O(0)          8.267e-15
   O2              4.134e-15   4.197e-15   -14.384   -14.377     0.007     30.40

------------------------------Saturation indices-------------------------------

  Phase               SI** log IAP   log K(298 K,   1 atm)

  H2(g)           -35.90    -39.00   -3.10  H2
  H2O(g)           -1.50     -0.00    1.50  H2O
  O2(g)           -11.48    -14.38   -2.89  O2

**For a gas, SI = log10(fugacity). Fugacity = pressure * phi / 1 atm.
  For ideal gases, phi = 1.

Reaction step 8.

-----------------------------Exchange composition------------------------------

X                4.000e-01 mol

	                               Equiv-    Equivalent      Log 
	Species             Moles      alents      Fraction     Gamma

	KX                1.590e-02   1.590e-02   3.976e-02    -0.131
	CaX2              3.860e-04   7.721e-04   1.930e-03    -0.448

-----------------------------Exchange composition------------------------------

X                4.000e-01 mol

	                               Equiv-    Equivalent      Log 
	Species             Moles      alents      Fraction     Gamma

	KX                1.590e-02   1.590e-02   3.976e-02    -0.131
	CaX2              3.860e-04   7.721e-04   1.930e-03    -0.448

-----------------------------Exchange composition------------------------------

X                4.000e-01 mol

	                               Equiv-    Equivalent      Log 
	Species             Moles      alents      Fraction     Gamma

	KX                1.590e-02   1.590e-02   3.976e-02    -0.131
	CaX2              3.860e-04   7.721e-04   1.930e-03    -0.448

-----------------------------Exchange composition------------------------------

X                4.000e-01 mol

	                               Equiv-    Equivalent      Log 
	Species             Moles      alents      Fraction     Gamma

	KX                1.590e-02   1.590e-02   3.976e-02    -0.131
	CaX2              3.860e-04   7.721e-04   1.930e-03    -0.448

-----------------------------Exchange composition------------------------------

X                4.000e-01 mol

	                               Equiv-    Equivalent      Log 
	Species             Moles      alents      Fraction     Gamma

	KX                1.590e-02   1.590e-02   3.976e-02    -0.131
	CaX2              3.861e-04   7.721e-04   1.930e-03    -0.448

-----------------------------Exchange composition------------------------------

X                4.000e-01 mol

	                               Equiv-    Equivalent      Log 
	Species             Moles      alents      Fraction     Gamma

	KX                1.167e+00   1.167e+00   2.918e+00    -0.130
	CaX2              4.167e+00   8.334e+00   2.083e+01    -0.447

-----------------------------Exchange composition------------------------------

X                4.000e-01 mol

	                               Equiv-    Equivalent      Log 
	Species             Moles      alents      Fraction     Gamma

	KX                5.114e-01   5.114e-01   1.279e+00    -0.108
	CaX2              1.344e+00   2.689e+00   6.721e+00    -0.383

-----------------------------Exchange composition------------------------------

X                4.000e-01 mol

	                               Equiv-    Equivalent      Log 
	Species             Moles      alents      Fraction     Gamma

	KX                3.129e-01   3.129e-01   7.822e-01    -0.107
	CaX2              5.291e-01   1.058e+00   2.645e+00    -0.380

-----------------------------Exchange composition------------------------------

X                4.000e-01 mol

	                               Equiv-    Equivalent      Log 
	Species             Moles      alents      Fraction     Gamma

	KX                2.579e-01   2.579e-01   6.447e-01    -0.106
	CaX2              2.282e-01   4.563e-01   1.141e+00    -0.374

-----------------------------Exchange composition------------------------------

X                4.000e-01 mol

	                               Equiv-    Equivalent      Log 
	Species             Moles      alents      Fraction     Gamma

	KX                2.434e-01   2.434e-01   6.086e-01    -0.103
	CaX2              1.210e-01   2.420e-01   6.049e-01    -0.367

-----------------------------Exchange composition------------------------------

X                4.000e-01 mol

	                               Equiv-    Equivalent      Log 
	Species             Moles      alents      Fraction     Gamma

	KX                2.379e-01   2.379e-01   5.948e-01    -0.102
	CaX2              8.771e-02   1.754e-01   4.386e-01    -0.363

-----------------------------Exchange composition------------------------------

X                4.000e-01 mol

	                               Equiv-    Equivalent      Log 
	Species             Moles      alents      Fraction     Gamma

	KX                2.369e-01   2.369e-01   5.923e-01    -0.102
	CaX2              8.181e-02   1.636e-01   4.091e-01    -0.362

-----------------------------Exchange composition------------------------------

X                4.000e-01 mol

	                               Equiv-    Equivalent      Log 
	Species             Moles      alents      Fraction     Gamma

	KX                2.369e-01   2.369e-01   5.922e-01    -0.102
	CaX2              8.156e-02   1.631e-01   4.078e-01    -0.362

-----------------------------Exchange composition------------------------------

X                4.000e-01 mol

	                               Equiv-    Equivalent      Log 
	Species             Moles      alents      Fraction     Gamma

	KX                2.369e-01   2.369e-01   5.922e-01    -0.102
	CaX2              8.156e-02   1.631e-01   4.078e-01    -0.362

Using solution 1.	
Using exchange 1.	
Using reaction 1.	

Reaction 1.	

	  2.000e-01 moles of the following reaction have been added:

	                 Relative
	Reactant            moles

	Ca                   0.50000
	K                   -1.00000

	                 Relative
	Element             moles
	Ca                   0.50000
	K                   -1.00000

-----------------------------Exchange composition------------------------------

X                4.000e-01 mol

	                               Equiv-    Equivalent      Log 
	Species             Moles      alents      Fraction     Gamma

	KX                2.369e-01   2.369e-01   5.922e-01    -0.102
	CaX2              8.156e-02   1.631e-01   4.078e-01    -0.362

-----------------------------Solution composition------------------------------

	Elements           Molality       Moles

	Ca                1.844e-02   1.844e-02
	K                 6.312e-02   6.312e-02

----------------------------Description of solution----------------------------

                                       pH  =   6.970      Charge balance
                                       pe  =  10.956      Adjusted to redox equilibrium
      Specific Conductance (µS/cm,  25°C)  = 5685
                          Density (g/cm³)  =   0.99998
                               Volume (L)  =   1.00322
                        Activity of water  =   0.999
                 Ionic strength (mol/kgw)  =   6.844e-02
                       Mass of water (kg)  =   1.000e+00
                 Total alkalinity (eq/kg)  =   7.391e-09
                         Temperature (°C)  =  25.00
                  Electrical balance (eq)  =   1.000e-01
 Percent error, 100*(Cat-|An|)/(Cat+|An|)  = 100.00
                               Iterations  =  14
                                  Total H  = 1.110124e+02
                                  Total O  = 5.550622e+01

----------------------------Distribution of species----------------------------

                                               Log       Log       Log    mole V
   Species          Molality    Activity  Molality  Activity     Gamma   cm³/mol

   H2O             5.551e+01   9.986e-01     1.744    -0.001     0.000     18.07
   H+              1.275e-07   1.072e-07    -6.895    -6.970    -0.075      0.00
   OH-             1.194e-07   9.430e-08    -6.923    -7.025    -0.103     -3.82
Ca            1.844e-02
   Ca+2            1.844e-02   8.013e-03    -1.734    -2.096    -0.362    -17.54
   CaOH+           1.543e-08   1.239e-08    -7.812    -7.907    -0.095     (0)  
H(0)          1.957e-39
   H2              9.784e-40   9.939e-40   -39.009   -39.003     0.007     28.61
K             6.312e-02
   K+              6.312e-02   4.996e-02    -1.200    -1.301    -0.102      9.20
O(0)          8.284e-15
   O2              4.142e-15   4.208e-15   -14.383   -14.376     0.007     30.40

------------------------------Saturation indices-------------------------------

  Phase               SI** log IAP   log K(298 K,   1 atm)

  H2(g)           -35.90    -39.00   -3.10  H2
  H2O(g)           -1.50     -0.00    1.50  H2O
  O2(g)           -11.48    -14.38   -2.89  O2

**For a gas, SI = log10(fugacity). Fugacity = pressure * phi / 1 atm.
  For ideal gases, phi = 1.

Reaction step 9.

-----------------------------Exchange composition------------------------------

X                4.000e-01 mol

	                               Equiv-    Equivalent      Log 
	Species             Moles      alents      Fraction     Gamma

	KX                1.603e-02   1.603e-02   4.008e-02    -0.134
	CaX2              4.439e-04   8.877e-04   2.219e-03    -0.458

-----------------------------Exchange composition------------------------------

X                4.000e-01 mol

	                               Equiv-    Equivalent      Log 
	Species             Moles      alents      Fraction     Gamma

	KX                1.603e-02   1.603e-02   4.008e-02    -0.134
	CaX2              4.439e-04   8.877e-04   2.219e-03    -0.458

-----------------------------Exchange composition------------------------------

X                4.000e-01 mol

	                               Equiv-    Equivalent      Log 
	Species             Moles      alents      Fraction     Gamma

	KX                1.603e-02   1.603e-02   4.008e-02    -0.134
	CaX2              4.439e-04   8.877e-04   2.219e-03    -0.458

-----------------------------Exchange composition------------------------------

X                4.000e-01 mol

	                               Equiv-    Equivalent      Log 
	Species             Moles      alents      Fraction     Gamma

	KX                1.603e-02   1.603e-02   4.008e-02    -0.134
	CaX2              4.439e-04   8.877e-04   2.219e-03    -0.458

-----------------------------Exchange composition------------------------------

X                4.000e-01 mol

	                               Equiv-    Equivalent      Log 
	Species             Moles      alents      Fraction     Gamma

	KX                1.603e-02   1.603e-02   4.008e-02    -0.134
	CaX2              4.439e-04   8.878e-04   2.219e-03    -0.458

-----------------------------Exchange composition------------------------------

X                4.000e-01 mol

	                               Equiv-    Equivalent      Log 
	Species             Moles      alents      Fraction     Gamma

	KX                1.131e+00   1.131e+00   2.827e+00    -0.134
	CaX2              4.765e+00   9.530e+00   2.383e+01    -0.456

-----------------------------Exchange composition------------------------------

X                4.000e-01 mol

	                               Equiv-    Equivalent      Log 
	Species             Moles      alents      Fraction     Gamma

	KX                4.871e-01   4.871e-01   1.218e+00    -0.109
	CaX2              1.514e+00   3.029e+00   7.571e+00    -0.386

-----------------------------Exchange composition------------------------------

X                4.000e-01 mol

	                               Equiv-    Equivalent      Log 
	Species             Moles      alents      Fraction     Gamma

	KX                2.926e-01   2.926e-01   7.315e-01    -0.108
	CaX2              5.965e-01   1.193e+00   2.982e+00    -0.383

-----------------------------Exchange composition------------------------------

X                4.000e-01 mol

	                               Equiv-    Equivalent      Log 
	Species             Moles      alents      Fraction     Gamma

	KX                2.377e-01   2.377e-01   5.943e-01    -0.107
	CaX2              2.570e-01   5.139e-01   1.285e+00    -0.378

-----------------------------Exchange composition------------------------------

X                4.000e-01 mol

	                               Equiv-    Equivalent      Log 
	Species             Moles      alents      Fraction     Gamma

	KX                2.235e-01   2.235e-01   5.587e-01    -0.105
	CaX2              1.361e-01   2.721e-01   6.803e-01    -0.371

-----------------------------Exchange composition------------------------------

X                4.000e-01 mol

	                               Equiv-    Equivalent      Log 
	Species             Moles      alents      Fraction     Gamma

	KX                2.180e-01   2.180e-01   5.450e-01    -0.103
	CaX2              9.853e-02   1.971e-01   4.926e-01    -0.367

-----------------------------Exchange composition------------------------------

X                4.000e-01 mol

	                               Equiv-    Equivalent      Log 
	Species             Moles      alents      Fraction     Gamma

	KX                2.169e-01   2.169e-01   5.423e-01    -0.103
	CaX2              9.185e-02   1.837e-01   4.592e-01    -0.366

-----------------------------Exchange composition------------------------------

X                4.000e-01 mol

	                               Equiv-    Equivalent      Log 
	Species             Moles      alents      Fraction     Gamma

	KX                2.169e-01   2.169e-01   5.422e-01    -0.103
	CaX2              9.156e-02   1.831e-01   4.578e-01    -0.366

-----------------------------Exchange composition------------------------------

X                4.000e-01 mol

	                               Equiv-    Equivalent      Log 
	Species             Moles      alents      Fraction     Gamma

	KX                2.169e-01   2.169e-01   5.422e-01    -0.103
	CaX2              9.156e-02   1.831e-01   4.578e-01    -0.366

Using solution 1.	
Using exchange 1.	
Using reaction 1.	

Reaction 1.	

	  2.250e-01 moles of the following reaction have been added:

	                 Relative
	Reactant            moles

	Ca                   0.50000
	K                   -1.00000

	                 Relative
	Element             moles
	Ca                   0.50000
	K                   -1.00000

-----------------------------Exchange composition------------------------------

X                4.000e-01 mol

	                               Equiv-    Equivalent      Log 
	Species             Moles      alents      Fraction     Gamma

	KX                2.169e-01   2.169e-01   5.422e-01    -0.103
	CaX2              9.156e-02   1.831e-01   4.578e-01    -0.366

-----------------------------Solution composition------------------------------

	Elements           Molality       Moles

	Ca                2.094e-02   2.094e-02
	K                 5.812e-02   5.812e-02

----------------------------Description of solution----------------------------

                                       pH  =   6.966      Charge balance
                                       pe  =  10.960      Adjusted to redox equilibrium
      Specific Conductance (µS/cm,  25°C)  = 5570
                          Density (g/cm³)  =   0.99998
                               Volume (L)  =   1.00313
                        Activity of water  =   0.999
                 Ionic strength (mol/kgw)  =   7.094e-02
                       Mass of water (kg)  =   1.000e+00
                 Total alkalinity (eq/kg)  =   7.391e-09
                         Temperature (°C)  =  25.00
                  Electrical balance (eq)  =   1.000e-01
 Percent error, 100*(Cat-|An|)/(Cat+|An|)  = 100.00
                               Iterations  =  14
                                  Total H  = 1.110124e+02
                                  Total O  = 5.550622e+01

----------------------------Distribution of species----------------------------

                                               Log       Log       Log    mole V
   Species          Molality    Activity  Molality  Activity     Gamma   cm³/mol

   H2O             5.551e+01   9.987e-01     1.744    -0.001     0.000     18.07
   H+              1.287e-07   1.081e-07    -6.890    -6.966    -0.076      0.00
   OH-             1.189e-07   9.355e-08    -6.925    -7.029    -0.104     -3.81
Ca            2.094e-02
   Ca+2            2.094e-02   9.009e-03    -1.679    -2.045    -0.366    -17.53
   CaOH+           1.725e-08   1.382e-08    -7.763    -7.860    -0.096     (0)  
H(0)          1.953e-39
   H2              9.767e-40   9.928e-40   -39.010   -39.003     0.007     28.61
K             5.812e-02
   K+              5.812e-02   4.585e-02    -1.236    -1.339    -0.103      9.20
O(0)          8.299e-15
   O2              4.150e-15   4.218e-15   -14.382   -14.375     0.007     30.40

------------------------------Saturation indices-------------------------------

  Phase               SI** log IAP   log K(298 K,   1 atm)

  H2(g)           -35.90    -39.00   -3.10  H2
  H2O(g)           -1.50     -0.00    1.50  H2O
  O2(g)           -11.48    -14.37   -2.89  O2

**For a gas, SI = log10(fugacity). Fugacity = pressure * phi / 1 atm.
  For ideal gases, phi = 1.

Reaction step 10.

-----------------------------Exchange composition------------------------------

X                4.000e-01 mol

	                               Equiv-    Equivalent      Log 
	Species             Moles      alents      Fraction     Gamma

	KX                1.615e-02   1.615e-02   4.038e-02    -0.137
	CaX2              5.032e-04   1.006e-03   2.516e-03    -0.466

-----------------------------Exchange composition------------------------------

X                4.000e-01 mol

	                               Equiv-    Equivalent      Log 
	Species             Moles      alents      Fraction     Gamma

	KX                1.615e-02   1.615e-02   4.038e-02    -0.137
[...]

X                4.000e-01 mol

	                               Equiv-    Equivalent      Log 
	Species             Moles      alents      Fraction     Gamma

	CaX2              1.804e-01   3.609e-01   9.022e-01    -0.401
	KX                3.911e-02   3.911e-02   9.778e-02    -0.114

-----------------------------Solution composition------------------------------

	Elements           Molality       Moles

	Ca                4.456e-02   4.456e-02
	K                 1.089e-02   1.089e-02

----------------------------Description of solution----------------------------

                                       pH  =   6.938      Charge balance
                                       pe  =  10.989      Adjusted to redox equilibrium
      Specific Conductance (µS/cm,  25°C)  = 4469
                          Density (g/cm³)  =   0.99992
                               Volume (L)  =   1.00229
                        Activity of water  =   0.999
                 Ionic strength (mol/kgw)  =   9.456e-02
                       Mass of water (kg)  =   1.000e+00
                 Total alkalinity (eq/kg)  =   7.391e-09
                         Temperature (°C)  =  25.00
                  Electrical balance (eq)  =   1.000e-01
 Percent error, 100*(Cat-|An|)/(Cat+|An|)  = 100.00
                               Iterations  =  14
                                  Total H  = 1.110124e+02
                                  Total O  = 5.550622e+01

----------------------------Distribution of species----------------------------

                                               Log       Log       Log    mole V
   Species          Molality    Activity  Molality  Activity     Gamma   cm³/mol

   H2O             5.551e+01   9.991e-01     1.744    -0.000     0.000     18.07
   H+              1.394e-07   1.154e-07    -6.856    -6.938    -0.082      0.00
   OH-             1.144e-07   8.763e-08    -6.941    -7.057    -0.116     -3.75
Ca            4.456e-02
   Ca+2            4.456e-02   1.769e-02    -1.351    -1.752    -0.401    -17.45
   CaOH+           3.240e-08   2.541e-08    -7.489    -7.595    -0.105     (0)  
H(0)          1.945e-39
   H2              9.723e-40   9.937e-40   -39.012   -39.003     0.009     28.61
K             1.089e-02
   K+              1.089e-02   8.367e-03    -1.963    -2.077    -0.114      9.23
O(0)          8.247e-15
   O2              4.123e-15   4.214e-15   -14.385   -14.375     0.009     30.40

------------------------------Saturation indices-------------------------------

  Phase               SI** log IAP   log K(298 K,   1 atm)

  H2(g)           -35.90    -39.00   -3.10  H2
  H2O(g)           -1.50     -0.00    1.50  H2O
  O2(g)           -11.48    -14.38   -2.89  O2

**For a gas, SI = log10(fugacity). Fugacity = pressure * phi / 1 atm.
  For ideal gases, phi = 1.

Reaction step 19.

-----------------------------Exchange composition------------------------------

X                4.000e-01 mol

	                               Equiv-    Equivalent      Log 
	Species             Moles      alents      Fraction     Gamma

	CaX2              1.035e-03   2.071e-03   5.177e-03    -0.501
	KX                1.386e-03   1.386e-03   3.464e-03    -0.151

-----------------------------Exchange composition------------------------------

X                4.000e-01 mol

	                               Equiv-    Equivalent      Log 
	Species             Moles      alents      Fraction     Gamma

	CaX2              1.035e-03   2.071e-03   5.177e-03    -0.501
	KX                1.386e-03   1.386e-03   3.464e-03    -0.151

-----------------------------Exchange composition------------------------------

X                4.000e-01 mol

	                               Equiv-    Equivalent      Log 
	Species             Moles      alents      Fraction     Gamma

	CaX2              1.035e-03   2.071e-03   5.177e-03    -0.501
	KX                1.386e-03   1.386e-03   3.464e-03    -0.151

-----------------------------Exchange composition------------------------------

X                4.000e-01 mol

	                               Equiv-    Equivalent      Log 
	Species             Moles      alents      Fraction     Gamma

	CaX2              1.035e-03   2.071e-03   5.177e-03    -0.501
	KX                1.386e-03   1.386e-03   3.464e-03    -0.151

-----------------------------Exchange composition------------------------------

X                4.000e-01 mol

	                               Equiv-    Equivalent      Log 
	Species             Moles      alents      Fraction     Gamma

	CaX2              1.036e-03   2.071e-03   5.178e-03    -0.501
	KX                1.386e-03   1.386e-03   3.465e-03    -0.151

-----------------------------Exchange composition------------------------------

X                4.000e-01 mol

	                               Equiv-    Equivalent      Log 
	Species             Moles      alents      Fraction     Gamma

	CaX2              1.006e+01   2.011e+01   5.029e+01    -0.498
	KX                8.383e-02   8.383e-02   2.096e-01    -0.150

-----------------------------Exchange composition------------------------------

X                4.000e-01 mol

	                               Equiv-    Equivalent      Log 
	Species             Moles      alents      Fraction     Gamma

	CaX2              3.053e+00   6.106e+00   1.526e+01    -0.407
	KX                3.746e-02   3.746e-02   9.365e-02    -0.116

-----------------------------Exchange composition------------------------------

X                4.000e-01 mol

	                               Equiv-    Equivalent      Log 
	Species             Moles      alents      Fraction     Gamma

	CaX2              1.197e+00   2.394e+00   5.985e+00    -0.406
	KX                2.487e-02   2.487e-02   6.218e-02    -0.116

-----------------------------Exchange composition------------------------------

X                4.000e-01 mol

	                               Equiv-    Equivalent      Log 
	Species             Moles      alents      Fraction     Gamma

	CaX2              5.167e-01   1.033e+00   2.583e+00    -0.406
	KX                2.162e-02   2.162e-02   5.406e-02    -0.116

-----------------------------Exchange composition------------------------------

X                4.000e-01 mol

	                               Equiv-    Equivalent      Log 
	Species             Moles      alents      Fraction     Gamma

	CaX2              2.750e-01   5.500e-01   1.375e+00    -0.405
	KX                2.040e-02   2.040e-02   5.101e-02    -0.116

-----------------------------Exchange composition------------------------------

X                4.000e-01 mol

	                               Equiv-    Equivalent      Log 
	Species             Moles      alents      Fraction     Gamma

	CaX2              2.022e-01   4.043e-01   1.011e+00    -0.405
	KX                1.970e-02   1.970e-02   4.926e-02    -0.116

-----------------------------Exchange composition------------------------------

X                4.000e-01 mol

	                               Equiv-    Equivalent      Log 
	Species             Moles      alents      Fraction     Gamma

	CaX2              1.906e-01   3.812e-01   9.529e-01    -0.405
	KX                1.955e-02   1.955e-02   4.887e-02    -0.116

-----------------------------Exchange composition------------------------------

X                4.000e-01 mol

	                               Equiv-    Equivalent      Log 
	Species             Moles      alents      Fraction     Gamma

	CaX2              1.902e-01   3.805e-01   9.511e-01    -0.405
	KX                1.954e-02   1.954e-02   4.885e-02    -0.116

-----------------------------Exchange composition------------------------------

X                4.000e-01 mol

	                               Equiv-    Equivalent      Log 
	Species             Moles      alents      Fraction     Gamma

	CaX2              1.902e-01   3.805e-01   9.511e-01    -0.405
	KX                1.954e-02   1.954e-02   4.885e-02    -0.116

Using solution 1.	
Using exchange 1.	
Using reaction 1.	

Reaction 1.	

	  4.750e-01 moles of the following reaction have been added:

	                 Relative
	Reactant            moles

	Ca                   0.50000
	K                   -1.00000

	                 Relative
	Element             moles
	Ca                   0.50000
	K                   -1.00000

-----------------------------Exchange composition------------------------------

X                4.000e-01 mol

	                               Equiv-    Equivalent      Log 
	Species             Moles      alents      Fraction     Gamma

	CaX2              1.902e-01   3.805e-01   9.511e-01    -0.405
	KX                1.954e-02   1.954e-02   4.885e-02    -0.116

-----------------------------Solution composition------------------------------

	Elements           Molality       Moles

	Ca                4.727e-02   4.727e-02
	K                 5.458e-03   5.458e-03

----------------------------Description of solution----------------------------

                                       pH  =   6.935      Charge balance
                                       pe  =  10.991      Adjusted to redox equilibrium
      Specific Conductance (µS/cm,  25°C)  = 4342
                          Density (g/cm³)  =   0.99992
                               Volume (L)  =   1.00219
                        Activity of water  =   0.999
                 Ionic strength (mol/kgw)  =   9.727e-02
                       Mass of water (kg)  =   1.000e+00
                 Total alkalinity (eq/kg)  =   7.391e-09
                         Temperature (°C)  =  25.00
                  Electrical balance (eq)  =   1.000e-01
 Percent error, 100*(Cat-|An|)/(Cat+|An|)  = 100.00
                               Iterations  =  14
                                  Total H  = 1.110124e+02
                                  Total O  = 5.550622e+01

----------------------------Distribution of species----------------------------

                                               Log       Log       Log    mole V
   Species          Molality    Activity  Molality  Activity     Gamma   cm³/mol

   H2O             5.551e+01   9.991e-01     1.744    -0.000     0.000     18.07
   H+              1.405e-07   1.162e-07    -6.852    -6.935    -0.083      0.00
   OH-             1.140e-07   8.705e-08    -6.943    -7.060    -0.117     -3.74
Ca            4.727e-02
   Ca+2            4.727e-02   1.862e-02    -1.325    -1.730    -0.405    -17.44
   CaOH+           3.395e-08   2.657e-08    -7.469    -7.576    -0.106     (0)  
H(0)          1.949e-39
   H2              9.746e-40   9.967e-40   -39.011   -39.001     0.010     28.61
K             5.458e-03
   K+              5.458e-03   4.183e-03    -2.263    -2.379    -0.116      9.24
O(0)          8.192e-15
   O2              4.096e-15   4.189e-15   -14.388   -14.378     0.010     30.40

------------------------------Saturation indices-------------------------------

  Phase               SI** log IAP   log K(298 K,   1 atm)

  H2(g)           -35.90    -39.00   -3.10  H2
  H2O(g)           -1.50     -0.00    1.50  H2O
  O2(g)           -11.49    -14.38   -2.89  O2

**For a gas, SI = log10(fugacity). Fugacity = pressure * phi / 1 atm.
  For ideal gases, phi = 1.

Reaction step 20.

-----------------------------Exchange composition------------------------------

X                4.000e-01 mol

	                               Equiv-    Equivalent      Log 
	Species             Moles      alents      Fraction     Gamma

	CaX2              1.099e-03   2.198e-03   5.496e-03    -0.505
	KX                1.235e-16   1.235e-16   3.087e-16    -0.152

-----------------------------Exchange composition------------------------------

X                4.000e-01 mol

	                               Equiv-    Equivalent      Log 
	Species             Moles      alents      Fraction     Gamma

	CaX2              1.099e-03   2.198e-03   5.496e-03    -0.505
	KX                1.235e-16   1.235e-16   3.087e-16    -0.152

-----------------------------Exchange composition------------------------------

X                4.000e-01 mol

	                               Equiv-    Equivalent      Log 
	Species             Moles      alents      Fraction     Gamma

	CaX2              1.099e-03   2.198e-03   5.496e-03    -0.505
	KX                1.235e-16   1.235e-16   3.087e-16    -0.152

-----------------------------Exchange composition------------------------------

X                4.000e-01 mol

	                               Equiv-    Equivalent      Log 
	Species             Moles      alents      Fraction     Gamma

	CaX2              1.099e-03   2.198e-03   5.496e-03    -0.505
	KX                1.235e-16   1.235e-16   3.087e-16    -0.152

-----------------------------Exchange composition------------------------------

X                4.000e-01 mol

	                               Equiv-    Equivalent      Log 
	Species             Moles      alents      Fraction     Gamma

	CaX2              1.099e-03   2.199e-03   5.497e-03    -0.505
	KX                1.235e-16   1.235e-16   3.088e-16    -0.152

-----------------------------Exchange composition------------------------------

X                4.000e-01 mol

	                               Equiv-    Equivalent      Log 
	Species             Moles      alents      Fraction     Gamma

	CaX2              1.061e+01   2.122e+01   5.304e+01    -0.501
	KX                7.359e-15   7.359e-15   1.840e-14    -0.151

-----------------------------Exchange composition------------------------------

X                4.000e-01 mol

	                               Equiv-    Equivalent      Log 
	Species             Moles      alents      Fraction     Gamma

	CaX2              3.208e+00   6.416e+00   1.604e+01    -0.408
	KX                3.295e-15   3.295e-15   8.236e-15    -0.117

-----------------------------Exchange composition------------------------------

X                4.000e-01 mol

	                               Equiv-    Equivalent      Log 
	Species             Moles      alents      Fraction     Gamma

	CaX2              1.256e+00   2.512e+00   6.280e+00    -0.408
	KX                2.201e-15   2.201e-15   5.504e-15    -0.117

-----------------------------Exchange composition------------------------------

X                4.000e-01 mol

	                               Equiv-    Equivalent      Log 
	Species             Moles      alents      Fraction     Gamma

	CaX2              5.418e-01   1.084e+00   2.709e+00    -0.408
	KX                1.921e-15   1.921e-15   4.803e-15    -0.117

-----------------------------Exchange composition------------------------------

X                4.000e-01 mol

	                               Equiv-    Equivalent      Log 
	Species             Moles      alents      Fraction     Gamma

	CaX2              2.883e-01   5.766e-01   1.442e+00    -0.408
	KX                1.812e-15   1.812e-15   4.531e-15    -0.117

-----------------------------Exchange composition------------------------------

X                4.000e-01 mol

	                               Equiv-    Equivalent      Log 
	Species             Moles      alents      Fraction     Gamma

	CaX2              2.122e-01   4.245e-01   1.061e+00    -0.408
	KX                1.749e-15   1.749e-15   4.372e-15    -0.117

-----------------------------Exchange composition------------------------------

X                4.000e-01 mol

	                               Equiv-    Equivalent      Log 
	Species             Moles      alents      Fraction     Gamma

	CaX2              2.003e-01   4.007e-01   1.002e+00    -0.408
	KX                1.735e-15   1.735e-15   4.337e-15    -0.117

-----------------------------Exchange composition------------------------------

X                4.000e-01 mol

	                               Equiv-    Equivalent      Log 
	Species             Moles      alents      Fraction     Gamma

	CaX2              2.000e-01   4.000e-01   1.000e+00    -0.408
	KX                1.734e-15   1.734e-15   4.336e-15    -0.117

-----------------------------Exchange composition------------------------------

X                4.000e-01 mol

	                               Equiv-    Equivalent      Log 
	Species             Moles      alents      Fraction     Gamma

	CaX2              2.000e-01   4.000e-01   1.000e+00    -0.408
	KX                1.734e-15   1.734e-15   4.336e-15    -0.117

Using solution 1.	
Using exchange 1.	
Using reaction 1.	

Reaction 1.	

	  5.000e-01 moles of the following reaction have been added:

	                 Relative
	Reactant            moles

	Ca                   0.50000
	K                   -1.00000

	                 Relative
	Element             moles
	Ca                   0.50000
	K                   -1.00000

-----------------------------Exchange composition------------------------------

X                4.000e-01 mol

	                               Equiv-    Equivalent      Log 
	Species             Moles      alents      Fraction     Gamma

	CaX2              2.000e-01   4.000e-01   1.000e+00    -0.408
	KX                1.734e-15   1.734e-15   4.336e-15    -0.117

-----------------------------Solution composition------------------------------

	Elements           Molality       Moles

	Ca                5.000e-02   5.000e-02
	K                 4.860e-16   4.860e-16

----------------------------Description of solution----------------------------

                                       pH  =   6.932      Charge balance
                                       pe  =  10.994      Adjusted to redox equilibrium
      Specific Conductance (µS/cm,  25°C)  = 4214
                          Density (g/cm³)  =   0.99991
                               Volume (L)  =   1.00209
                        Activity of water  =   0.999
                 Ionic strength (mol/kgw)  =   1.000e-01
                       Mass of water (kg)  =   1.000e+00
                 Total alkalinity (eq/kg)  =   7.391e-09
                         Temperature (°C)  =  25.00
                  Electrical balance (eq)  =   1.000e-01
 Percent error, 100*(Cat-|An|)/(Cat+|An|)  = 100.00
                               Iterations  =  14
                                  Total H  = 1.110124e+02
                                  Total O  = 5.550622e+01

----------------------------Distribution of species----------------------------

                                               Log       Log       Log    mole V
   Species          Molality    Activity  Molality  Activity     Gamma   cm³/mol

   H2O             5.551e+01   9.991e-01     1.744    -0.000     0.000     18.07
   H+              1.417e-07   1.169e-07    -6.849    -6.932    -0.083      0.00
   OH-             1.136e-07   8.650e-08    -6.945    -7.063    -0.118     -3.73
Ca            5.000e-02
   Ca+2            5.000e-02   1.954e-02    -1.301    -1.709    -0.408    -17.43
   CaOH+           3.547e-08   2.771e-08    -7.450    -7.557    -0.107     (0)  
H(0)          1.941e-39
   H2              9.706e-40   9.932e-40   -39.013   -39.003     0.010     28.61
K             4.860e-16
   K+              4.860e-16   3.714e-16   -15.313   -15.430    -0.117      9.24
O(0)          8.246e-15
   O2              4.123e-15   4.219e-15   -14.385   -14.375     0.010     30.40

------------------------------Saturation indices-------------------------------

  Phase               SI** log IAP   log K(298 K,   1 atm)

  H2(g)           -35.90    -39.00   -3.10  H2
  H2O(g)           -1.50     -0.00    1.50  H2O
  O2(g)           -11.48    -14.37   -2.89  O2

**For a gas, SI = log10(fugacity). Fugacity = pressure * phi / 1 atm.
  For ideal gases, phi = 1.

------------------
End of simulation.
------------------

------------------------------------
Reading input data for simulation 2.
------------------------------------

----------------------------------
End of Run after 0.082554 Seconds.
----------------------------------

