   Input file: ../examples/Example_Calcite_CO2.pqi
  Output file: ../examples/Example_Calcite_CO2.pqi.out
Database file: ../database/phreeqc.dat

------------------
Reading data base.
------------------

	SOLUTION_MASTER_SPECIES
	SOLUTION_SPECIES
	PHASES
	EXCHANGE_MASTER_SPECIES
	EXCHANGE_SPECIES
	SURFACE_MASTER_SPECIES
	SURFACE_SPECIES
	RATES
	END
------------------------------------
Reading input data for simulation 1.
------------------------------------

	DATABASE ../database/phreeqc.dat
	SOLUTION 1
	    temp      25
	    pH        7
	    pe        4
	    redox     pe
	    units     mmol/kgw
	    density   1
	    water    1 # kg
	SELECTED_OUTPUT 1
	    file                 ../examples/Example_Calcite_C02.sel
	    reset                false
	    ph                   true
	    saturation_indices   CO2(g)
	USE SOLUTION 1
	EQUILIBRIUM_PHASES 1
	CO2(g)    -4 100
	Calcite    0 10 #dissolve_only
	END
-------------------------------------------
Beginning of initial solution calculations.
-------------------------------------------

Initial solution 1.	

-----------------------------Solution composition------------------------------

	Elements           Molality       Moles

	Pure water     

----------------------------Description of solution----------------------------

                                       pH  =   7.000    
                                       pe  =   4.000    
      Specific Conductance (µS/cm,  25°C)  = 0
                          Density (g/cm³)  =   0.99704
                               Volume (L)  =   1.00297
                        Activity of water  =   1.000
                 Ionic strength (mol/kgw)  =   1.007e-07
                       Mass of water (kg)  =   1.000e+00
                 Total alkalinity (eq/kg)  =   1.217e-09
                         Temperature (°C)  =  25.00
                  Electrical balance (eq)  =  -1.217e-09
 Percent error, 100*(Cat-|An|)/(Cat+|An|)  =  -0.60
                               Iterations  =   0
                                  Total H  = 1.110124e+02
                                  Total O  = 5.550622e+01

----------------------------Distribution of species----------------------------

                                               Log       Log       Log    mole V
   Species          Molality    Activity  Molality  Activity     Gamma   cm³/mol

   OH-             1.013e-07   1.012e-07    -6.995    -6.995    -0.000     -4.14
   H+              1.001e-07   1.000e-07    -7.000    -7.000    -0.000      0.00
   H2O             5.551e+01   1.000e+00     1.744     0.000     0.000     18.07
H(0)          1.416e-25
   H2              7.079e-26   7.079e-26   -25.150   -25.150     0.000     28.61
O(0)          0.000e+00
   O2              0.000e+00   0.000e+00   -42.080   -42.080     0.000     30.40

------------------------------Saturation indices-------------------------------

  Phase               SI** log IAP   log K(298 K,   1 atm)

  H2(g)           -22.05    -25.15   -3.10  H2
  H2O(g)           -1.50      0.00    1.50  H2O
  O2(g)           -39.19    -42.08   -2.89  O2

**For a gas, SI = log10(fugacity). Fugacity = pressure * phi / 1 atm.
  For ideal gases, phi = 1.

-----------------------------------------
Beginning of batch-reaction calculations.
-----------------------------------------

Reaction step 1.

Using solution 1.	
Using pure phase assemblage 1.	

-------------------------------Phase assemblage--------------------------------

                                                      Moles in assemblage
Phase               SI  log IAP  log K(T, P)   Initial       Final       Delta

CO2(g)           -4.00    -5.47     -1.47    1.000e+02   1.000e+02  -3.186e-04
Calcite           0.00    -8.48     -8.48    1.000e+01   1.000e+01  -3.383e-04

-----------------------------Solution composition------------------------------

	Elements           Molality       Moles

	C                 6.569e-04   6.569e-04
	Ca                3.383e-04   3.383e-04

----------------------------Description of solution----------------------------

                                       pH  =   8.606      Charge balance
                                       pe  =  -2.883      Adjusted to redox equilibrium
      Specific Conductance (µS/cm,  25°C)  = 66
                          Density (g/cm³)  =   0.99709
                               Volume (L)  =   1.00297
                        Activity of water  =   1.000
                 Ionic strength (mol/kgw)  =   1.007e-03
                       Mass of water (kg)  =   1.000e+00
                 Total alkalinity (eq/kg)  =   6.766e-04
                       Total CO2 (mol/kg)  =   6.569e-04
                         Temperature (°C)  =  25.00
                  Electrical balance (eq)  =  -1.217e-09
 Percent error, 100*(Cat-|An|)/(Cat+|An|)  =  -0.00
                               Iterations  =  16
                                  Total H  = 1.110124e+02
                                  Total O  = 5.550787e+01

----------------------------Distribution of species----------------------------

                                               Log       Log       Log    mole V
   Species          Molality    Activity  Molality  Activity     Gamma   cm³/mol

   OH-             4.232e-06   4.082e-06    -5.373    -5.389    -0.016     -4.11
   H+              2.565e-09   2.479e-09    -8.591    -8.606    -0.015      0.00
   H2O             5.551e+01   1.000e+00     1.744    -0.000     0.000     18.07
C(-4)         1.393e-27
   CH4             1.393e-27   1.393e-27   -26.856   -26.856     0.000     35.46
C(4)          6.569e-04
   HCO3-           6.324e-04   6.104e-04    -3.199    -3.214    -0.015     24.68
   CO3-2           1.330e-05   1.155e-05    -4.876    -4.938    -0.061     -5.27
   CaCO3           5.564e-06   5.565e-06    -5.255    -5.255     0.000    -14.60
   CO2             3.402e-06   3.403e-06    -5.468    -5.468     0.000     34.43
   CaHCO3+         2.314e-06   2.234e-06    -5.636    -5.651    -0.015      9.67
   (CO2)2          2.125e-13   2.125e-13   -12.673   -12.673     0.000     68.87
Ca            3.383e-04
   Ca+2            3.304e-04   2.869e-04    -3.481    -3.542    -0.061    -18.14
   CaCO3           5.564e-06   5.565e-06    -5.255    -5.255     0.000    -14.60
   CaHCO3+         2.314e-06   2.234e-06    -5.636    -5.651    -0.015      9.67
   CaOH+           1.990e-08   1.920e-08    -7.701    -7.717    -0.016     (0)  
H(0)          5.086e-15
   H2              2.543e-15   2.544e-15   -14.595   -14.595     0.000     28.61
O(0)          0.000e+00
   O2              0.000e+00   0.000e+00   -63.191   -63.191     0.000     30.40

------------------------------Saturation indices-------------------------------

  Phase               SI** log IAP   log K(298 K,   1 atm)

  Aragonite        -0.14     -8.48   -8.34  CaCO3
  Calcite           0.00     -8.48   -8.48  CaCO3
  CH4(g)          -24.05    -26.86   -2.80  CH4
  CO2(g)           -4.00     -5.47   -1.47  CO2	 Pressure   0.0 atm, phi 1.000
  H2(g)           -11.49    -14.59   -3.10  H2
  H2O(g)           -1.50     -0.00    1.50  H2O
  O2(g)           -60.30    -63.19   -2.89  O2

**For a gas, SI = log10(fugacity). Fugacity = pressure * phi / 1 atm.
  For ideal gases, phi = 1.

------------------
End of simulation.
------------------

------------------------------------
Reading input data for simulation 2.
------------------------------------

	USE SOLUTION 1
	EQUILIBRIUM_PHASES 1
	CO2(g)    -3 100
	Calcite    0 10 #dissolve_only
	END
-----------------------------------------
Beginning of batch-reaction calculations.
-----------------------------------------

Reaction step 1.

Using solution 1.	
Using pure phase assemblage 1.	

-------------------------------Phase assemblage--------------------------------

                                                      Moles in assemblage
Phase               SI  log IAP  log K(T, P)   Initial       Final       Delta

CO2(g)           -3.00    -4.47     -1.47    1.000e+02   1.000e+02  -7.507e-04
Calcite           0.00    -8.48     -8.48    1.000e+01   9.999e+00  -7.301e-04

-----------------------------Solution composition------------------------------

	Elements           Molality       Moles

	C                 1.481e-03   1.481e-03
	Ca                7.301e-04   7.301e-04

----------------------------Description of solution----------------------------

                                       pH  =   7.952      Charge balance
                                       pe  =  -2.229      Adjusted to redox equilibrium
      Specific Conductance (µS/cm,  25°C)  = 137
                          Density (g/cm³)  =   0.99714
                               Volume (L)  =   1.00298
                        Activity of water  =   1.000
                 Ionic strength (mol/kgw)  =   2.159e-03
                       Mass of water (kg)  =   1.000e+00
                 Total alkalinity (eq/kg)  =   1.460e-03
                       Total CO2 (mol/kg)  =   1.481e-03
                         Temperature (°C)  =  25.00
                  Electrical balance (eq)  =  -1.215e-09
 Percent error, 100*(Cat-|An|)/(Cat+|An|)  =  -0.00
                               Iterations  =  16
                                  Total H  = 1.110124e+02
                                  Total O  = 5.550991e+01

----------------------------Distribution of species----------------------------

                                               Log       Log       Log    mole V
   Species          Molality    Activity  Molality  Activity     Gamma   cm³/mol

   OH-             9.534e-07   9.053e-07    -6.021    -6.043    -0.022     -4.09
   H+              1.173e-08   1.118e-08    -7.931    -7.952    -0.021      0.00
   H2O             5.551e+01   1.000e+00     1.744    -0.000     0.000     18.07
C(-4)         1.395e-26
   CH4             1.395e-26   1.396e-26   -25.855   -25.855     0.000     35.46
C(4)          1.481e-03
   HCO3-           1.424e-03   1.354e-03    -2.847    -2.868    -0.022     24.70
   CO2             3.401e-05   3.403e-05    -4.468    -4.468     0.000     34.43
   CaHCO3+         1.059e-05   1.008e-05    -4.975    -4.997    -0.022      9.68
   CO3-2           6.947e-06   5.678e-06    -5.158    -5.246    -0.088     -5.22
   CaCO3           5.562e-06   5.565e-06    -5.255    -5.255     0.000    -14.60
   (CO2)2          2.124e-11   2.125e-11   -10.673   -10.673     0.000     68.87
Ca            7.301e-04
   Ca+2            7.140e-04   5.834e-04    -3.146    -3.234    -0.088    -18.09
   CaHCO3+         1.059e-05   1.008e-05    -4.975    -4.997    -0.022      9.68
   CaCO3           5.562e-06   5.565e-06    -5.255    -5.255     0.000    -14.60
   CaOH+           9.116e-09   8.660e-09    -8.040    -8.063    -0.022     (0)  
H(0)          5.087e-15
   H2              2.544e-15   2.545e-15   -14.595   -14.594     0.000     28.61
O(0)          0.000e+00
   O2              0.000e+00   0.000e+00   -63.192   -63.191     0.000     30.40

------------------------------Saturation indices-------------------------------

  Phase               SI** log IAP   log K(298 K,   1 atm)

  Aragonite        -0.14     -8.48   -8.34  CaCO3
  Calcite           0.00     -8.48   -8.48  CaCO3
  CH4(g)          -23.05    -25.86   -2.80  CH4
  CO2(g)           -3.00     -4.47   -1.47  CO2	 Pressure   0.0 atm, phi 1.000
  H2(g)           -11.49    -14.59   -3.10  H2
  H2O(g)           -1.50     -0.00    1.50  H2O
  O2(g)           -60.30    -63.19   -2.89  O2

**For a gas, SI = log10(fugacity). Fugacity = pressure * phi / 1 atm.
  For ideal gases, phi = 1.

------------------
End of simulation.
------------------

------------------------------------
Reading input data for simulation 3.
------------------------------------

----------------------------------
End of Run after 0.052069 Seconds.
----------------------------------

