   Input file: ../examples/Example_Water_CO2.pqi
  Output file: ../examples/Example_Water_CO2.pqi.out
Database file: ../database/phreeqc.dat

------------------
Reading data base.
------------------

	SOLUTION_MASTER_SPECIES
	SOLUTION_SPECIES
	PHASES
	EXCHANGE_MASTER_SPECIES
	EXCHANGE_SPECIES
	SURFACE_MASTER_SPECIES
	SURFACE_SPECIES
	RATES
	END
------------------------------------
Reading input data for simulation 1.
------------------------------------

	DATABASE ../database/phreeqc.dat
	SOLUTION 1
	    temp      25
	    pH        7
	    pe        4
	    redox     pe
	    units     mmol/kgw
	    density   1
	    water    1 # kg
	SELECTED_OUTPUT 1
	    file                 ../examples/Example_Water_C02.sel
	    reset                false
	    ph                   true
	    saturation_indices   CO2(g)
	USE SOLUTION 1
	EQUILIBRIUM_PHASES 1
	CO2(g)    -4 100
	END
-------------------------------------------
Beginning of initial solution calculations.
-------------------------------------------

Initial solution 1.	

-----------------------------Solution composition------------------------------

	Elements           Molality       Moles

	Pure water     

----------------------------Description of solution----------------------------

                                       pH  =   7.000    
                                       pe  =   4.000    
      Specific Conductance (µS/cm,  25°C)  = 0
                          Density (g/cm³)  =   0.99704
                               Volume (L)  =   1.00297
                        Activity of water  =   1.000
                 Ionic strength (mol/kgw)  =   1.007e-07
                       Mass of water (kg)  =   1.000e+00
                 Total alkalinity (eq/kg)  =   1.217e-09
                         Temperature (°C)  =  25.00
                  Electrical balance (eq)  =  -1.217e-09
 Percent error, 100*(Cat-|An|)/(Cat+|An|)  =  -0.60
                               Iterations  =   0
                                  Total H  = 1.110124e+02
                                  Total O  = 5.550622e+01

----------------------------Distribution of species----------------------------

                                               Log       Log       Log    mole V
   Species          Molality    Activity  Molality  Activity     Gamma   cm³/mol

   OH-             1.013e-07   1.012e-07    -6.995    -6.995    -0.000     -4.14
   H+              1.001e-07   1.000e-07    -7.000    -7.000    -0.000      0.00
   H2O             5.551e+01   1.000e+00     1.744     0.000     0.000     18.07
H(0)          1.416e-25
   H2              7.079e-26   7.079e-26   -25.150   -25.150     0.000     28.61
O(0)          0.000e+00
   O2              0.000e+00   0.000e+00   -42.080   -42.080     0.000     30.40

------------------------------Saturation indices-------------------------------

  Phase               SI** log IAP   log K(298 K,   1 atm)

  H2(g)           -22.05    -25.15   -3.10  H2
  H2O(g)           -1.50      0.00    1.50  H2O
  O2(g)           -39.19    -42.08   -2.89  O2

**For a gas, SI = log10(fugacity). Fugacity = pressure * phi / 1 atm.
  For ideal gases, phi = 1.

-----------------------------------------
Beginning of batch-reaction calculations.
-----------------------------------------

Reaction step 1.

Using solution 1.	
Using pure phase assemblage 1.	

-------------------------------Phase assemblage--------------------------------

                                                      Moles in assemblage
Phase               SI  log IAP  log K(T, P)   Initial       Final       Delta

CO2(g)           -4.00    -5.47     -1.47    1.000e+02   1.000e+02  -4.631e-06

-----------------------------Solution composition------------------------------

	Elements           Molality       Moles

	C                 4.631e-06   4.631e-06

----------------------------Description of solution----------------------------

                                       pH  =   5.909      Charge balance
                                       pe  =   0.067      Adjusted to redox equilibrium
      Specific Conductance (µS/cm,  25°C)  = 0
                          Density (g/cm³)  =   0.99704
                               Volume (L)  =   1.00297
                        Activity of water  =   1.000
                 Ionic strength (mol/kgw)  =   1.236e-06
                       Mass of water (kg)  =   1.000e+00
                 Total alkalinity (eq/kg)  =   1.217e-09
                       Total CO2 (mol/kg)  =   4.631e-06
                         Temperature (°C)  =  25.00
                  Electrical balance (eq)  =  -1.217e-09
 Percent error, 100*(Cat-|An|)/(Cat+|An|)  =  -0.05
                               Iterations  =  12
                                  Total H  = 1.110124e+02
                                  Total O  = 5.550623e+01

----------------------------Distribution of species----------------------------

                                               Log       Log       Log    mole V
   Species          Molality    Activity  Molality  Activity     Gamma   cm³/mol

   H+              1.235e-06   1.234e-06    -5.908    -5.909    -0.001      0.00
   OH-             8.214e-09   8.204e-09    -8.085    -8.086    -0.001     -4.14
   H2O             5.551e+01   1.000e+00     1.744    -0.000     0.000     18.07
C(-4)         1.310e-29
   CH4             1.310e-29   1.310e-29   -28.883   -28.883     0.000     35.46
C(4)          4.631e-06
   CO2             3.403e-06   3.403e-06    -5.468    -5.468     0.000     34.43
   HCO3-           1.228e-06   1.227e-06    -5.911    -5.911    -0.001     24.65
   CO3-2           4.687e-11   4.663e-11   -10.329   -10.331    -0.002     -5.39
   (CO2)2          2.125e-13   2.125e-13   -12.673   -12.673     0.000     68.87
H(0)          1.584e-15
   H2              7.921e-16   7.921e-16   -15.101   -15.101     0.000     28.61
O(0)          0.000e+00
   O2              0.000e+00   0.000e+00   -62.178   -62.178     0.000     30.40

------------------------------Saturation indices-------------------------------

  Phase               SI** log IAP   log K(298 K,   1 atm)

  CH4(g)          -26.08    -28.88   -2.80  CH4
  CO2(g)           -4.00     -5.47   -1.47  CO2	 Pressure   0.0 atm, phi 1.000
  H2(g)           -12.00    -15.10   -3.10  H2
  H2O(g)           -1.50     -0.00    1.50  H2O
  O2(g)           -59.29    -62.18   -2.89  O2

**For a gas, SI = log10(fugacity). Fugacity = pressure * phi / 1 atm.
  For ideal gases, phi = 1.

------------------
End of simulation.
------------------

------------------------------------
Reading input data for simulation 2.
------------------------------------

	USE SOLUTION 1
	EQUILIBRIUM_PHASES 1
	CO2(g)    -3 100
	END
-----------------------------------------
Beginning of batch-reaction calculations.
-----------------------------------------

Reaction step 1.

Using solution 1.	
Using pure phase assemblage 1.	

-------------------------------Phase assemblage--------------------------------

                                                      Moles in assemblage
Phase               SI  log IAP  log K(T, P)   Initial       Final       Delta

CO2(g)           -3.00    -4.47     -1.47    1.000e+02   1.000e+02  -3.793e-05

-----------------------------Solution composition------------------------------

	Elements           Molality       Moles

	C                 3.793e-05   3.793e-05

----------------------------Description of solution----------------------------

                                       pH  =   5.410      Charge balance
                                       pe  =   0.566      Adjusted to redox equilibrium
      Specific Conductance (µS/cm,  25°C)  = 1
                          Density (g/cm³)  =   0.99704
                               Volume (L)  =   1.00297
                        Activity of water  =   1.000
                 Ionic strength (mol/kgw)  =   3.901e-06
                       Mass of water (kg)  =   1.000e+00
                 Total alkalinity (eq/kg)  =   1.217e-09
                       Total CO2 (mol/kg)  =   3.793e-05
                         Temperature (°C)  =  25.00
                  Electrical balance (eq)  =  -1.217e-09
 Percent error, 100*(Cat-|An|)/(Cat+|An|)  =  -0.02
                               Iterations  =  12
                                  Total H  = 1.110124e+02
                                  Total O  = 5.550629e+01

----------------------------Distribution of species----------------------------

                                               Log       Log       Log    mole V
   Species          Molality    Activity  Molality  Activity     Gamma   cm³/mol

   H+              3.900e-06   3.891e-06    -5.409    -5.410    -0.001      0.00
   OH-             2.607e-09   2.601e-09    -8.584    -8.585    -0.001     -4.14
   H2O             5.551e+01   1.000e+00     1.744    -0.000     0.000     18.07
C(-4)         1.310e-28
   CH4             1.310e-28   1.310e-28   -27.883   -27.883     0.000     35.46
C(4)          3.793e-05
   CO2             3.403e-05   3.403e-05    -4.468    -4.468     0.000     34.43
   HCO3-           3.899e-06   3.890e-06    -5.409    -5.410    -0.001     24.65
   CO3-2           4.731e-11   4.688e-11   -10.325   -10.329    -0.004     -5.38
   (CO2)2          2.125e-11   2.125e-11   -10.673   -10.673     0.000     68.87
H(0)          1.584e-15
   H2              7.921e-16   7.921e-16   -15.101   -15.101     0.000     28.61
O(0)          0.000e+00
   O2              0.000e+00   0.000e+00   -62.178   -62.178     0.000     30.40

------------------------------Saturation indices-------------------------------

  Phase               SI** log IAP   log K(298 K,   1 atm)

  CH4(g)          -25.08    -27.88   -2.80  CH4
  CO2(g)           -3.00     -4.47   -1.47  CO2	 Pressure   0.0 atm, phi 1.000
  H2(g)           -12.00    -15.10   -3.10  H2
  H2O(g)           -1.50     -0.00    1.50  H2O
  O2(g)           -59.29    -62.18   -2.89  O2

**For a gas, SI = log10(fugacity). Fugacity = pressure * phi / 1 atm.
  For ideal gases, phi = 1.

------------------
End of simulation.
------------------

------------------------------------
Reading input data for simulation 3.
------------------------------------

---------------------------------
End of Run after 0.05014 Seconds.
---------------------------------

