   Input file: ../examples/example-laura-2
  Output file: ../examples/example-laura-2.out
Database file: ../database/phreeqc-extended.dat

------------------
Reading data base.
------------------

	SOLUTION_MASTER_SPECIES
	SOLUTION_SPECIES
	PHASES
	EXCHANGE_MASTER_SPECIES
	EXCHANGE_SPECIES
	SURFACE_MASTER_SPECIES
	SURFACE_SPECIES
	RATES
	END
------------------------------------
Reading input data for simulation 1.
------------------------------------

	DATABASE ../database/phreeqc-extended.dat
	SOLUTION 1
	    temp      50
	    pH        7
	    pe        4
	    redox     pe
	    units     mmol/kgw
	    density   1
	    water    1 # kg
	SELECTED_OUTPUT 1
	    file                 ../examples/example-laura-2.sel
	    reset                false
	    temperature          true
	    ph                   true
	    totals               P
	    saturation_indices   CO2(g)
	USE SOLUTION 1
	GAS_PHASE 1 Fixed-pressure gas phase
	        fixed_pressure
	        pressure       1.1
	        CO2(g)          1e-4
	END
-------------------------------------------
Beginning of initial solution calculations.
-------------------------------------------

Initial solution 1.	

-----------------------------Solution composition------------------------------

	Elements           Molality       Moles

	Pure water     

----------------------------Description of solution----------------------------

                                       pH  =   7.000    
                                       pe  =   4.000    
      Specific Conductance (µS/cm,  50°C)  = 0
                          Density (g/cm³)  =   0.98803
                               Volume (L)  =   1.01212
                        Activity of water  =   1.000
                 Ionic strength (mol/kgw)  =   3.239e-07
                       Mass of water (kg)  =   1.000e+00
                 Total alkalinity (eq/kg)  =   4.477e-07
                         Temperature (°C)  =  50.00
                  Electrical balance (eq)  =  -4.477e-07
 Percent error, 100*(Cat-|An|)/(Cat+|An|)  = -69.11
                               Iterations  =   2
                                  Total H  = 1.110124e+02
                                  Total O  = 5.550622e+01

----------------------------Distribution of species----------------------------

                                               Log       Log       Log    mole V
   Species          Molality    Activity  Molality  Activity     Gamma   cm³/mol

   OH-             5.477e-07   5.474e-07    -6.261    -6.262    -0.000     -3.84
   H+              1.001e-07   1.000e-07    -7.000    -7.000    -0.000      0.00
   H2O             5.551e+01   1.000e+00     1.744    -0.000     0.000     18.23
H(0)          1.125e-25
   H2              5.627e-26   5.627e-26   -25.250   -25.250     0.000     28.59
O(0)          7.319e-35
   O2              3.660e-35   3.660e-35   -34.437   -34.437     0.000     31.92

------------------------------Saturation indices-------------------------------

  Phase               SI** log IAP   log K(323 K,   1 atm)

  H2(g)           -22.11    -25.25   -3.14  H2
  H2O(g)           -0.92     -0.00    0.92  H2O
  O2(g)           -31.41    -34.44   -3.03  O2

**For a gas, SI = log10(fugacity). Fugacity = pressure * phi / 1 atm.
  For ideal gases, phi = 1.

-----------------------------------------
Beginning of batch-reaction calculations.
-----------------------------------------

Reaction step 1.

Using solution 1.	
Using gas phase 1.	Fixed-pressure gas phase

----------------Fixed-pressure gas phase 1 dissolved completely----------------

-----------------------------Solution composition------------------------------

	Elements           Molality       Moles

	C                 4.087e-06   4.087e-06

----------------------------Description of solution----------------------------

                                       pH  =   6.000      Charge balance
                                       pe  =   9.978      Adjusted to redox equilibrium
      Specific Conductance (µS/cm,  50°C)  = 0
                          Density (g/cm³)  =   0.98803
                               Volume (L)  =   1.01211
                        Activity of water  =   1.000
                 Ionic strength (mol/kgw)  =   1.226e-06
                       Mass of water (kg)  =   1.000e+00
                 Total alkalinity (eq/kg)  =   4.477e-07
                       Total CO2 (mol/kg)  =   4.087e-06
                         Temperature (°C)  =  50.00
                           Pressure (atm)  =  1.10
                  Electrical balance (eq)  =  -4.477e-07
 Percent error, 100*(Cat-|An|)/(Cat+|An|)  = -18.26
                               Iterations  =  10
                                  Total H  = 1.110124e+02
                                  Total O  = 5.550623e+01

----------------------------Distribution of species----------------------------

                                               Log       Log       Log    mole V
   Species          Molality    Activity  Molality  Activity     Gamma   cm³/mol

   H+              1.002e-06   1.001e-06    -5.999    -6.000    -0.001      0.00
   OH-             5.477e-08   5.469e-08    -7.261    -7.262    -0.001     -3.83
   H2O             5.551e+01   1.000e+00     1.744    -0.000     0.000     18.23
C(-4)         0.000e+00
   CH4             0.000e+00   0.000e+00  -112.241  -112.241     0.000     37.33
C(4)          4.087e-06
   CO2             2.692e-06   2.692e-06    -5.570    -5.570     0.000     35.66
   HCO3-           1.395e-06   1.393e-06    -5.855    -5.856    -0.001     25.66
   CO3-2           9.367e-11   9.316e-11   -10.028   -10.031    -0.002     -5.44
   (CO2)2          2.721e-13   2.721e-13   -12.565   -12.565     0.000     71.32
H(0)          1.248e-35
   H2              6.240e-36   6.240e-36   -35.205   -35.205     0.000     28.59
O(0)          5.950e-15
   O2              2.975e-15   2.975e-15   -14.527   -14.527     0.000     31.92

------------------------------Saturation indices-------------------------------

  Phase               SI** log IAP   log K(323 K,   1 atm)

  CH4(g)         -109.28   -112.24   -2.96  CH4
  CO2(g)           -3.86     -5.57   -1.71  CO2
  H2(g)           -32.07    -35.20   -3.14  H2
  H2O(g)           -0.92     -0.00    0.92  H2O
  O2(g)           -11.50    -14.53   -3.03  O2

**For a gas, SI = log10(fugacity). Fugacity = pressure * phi / 1 atm.
  For ideal gases, phi = 1.

------------------
End of simulation.
------------------

------------------------------------
Reading input data for simulation 2.
------------------------------------

	SAVE solution 1
	USE SOLUTION 1
	 EQUILIBRIUM_PHASES 1
	 Calcite 0 10 dissolve_only
	 REACTION_TEMPERATURE 1
	 50
	 END
-----------------------------------------
Beginning of batch-reaction calculations.
-----------------------------------------

Reaction step 1.

Using solution 1.	
Using pure phase assemblage 1.	
Using temperature 1.	

-------------------------------Phase assemblage--------------------------------

                                                      Moles in assemblage
Phase               SI  log IAP  log K(T, P)   Initial       Final       Delta

Calcite           0.00    -8.66     -8.66    1.000e+01   1.000e+01  -1.474e-04

-----------------------------Solution composition------------------------------

	Elements           Molality       Moles

	C                 1.474e-04   1.474e-04
	Ca                1.474e-04   1.474e-04

----------------------------Description of solution----------------------------

                                       pH  =   9.337      Charge balance
                                       pe  =   6.524      Adjusted to redox equilibrium
      Specific Conductance (µS/cm,  50°C)  = 71
                          Density (g/cm³)  =   0.98805
                               Volume (L)  =   1.01211
                        Activity of water  =   1.000
                 Ionic strength (mol/kgw)  =   4.395e-04
                       Mass of water (kg)  =   1.000e+00
                 Total alkalinity (eq/kg)  =   2.952e-04
                       Total CO2 (mol/kg)  =   1.474e-04
                         Temperature (°C)  =  50.00
                  Electrical balance (eq)  =  -4.477e-07
 Percent error, 100*(Cat-|An|)/(Cat+|An|)  =  -0.08
                               Iterations  =  16
                                  Total H  = 1.110124e+02
                                  Total O  = 5.550666e+01

----------------------------Distribution of species----------------------------

                                               Log       Log       Log    mole V
   Species          Molality    Activity  Molality  Activity     Gamma   cm³/mol

   OH-             1.219e-04   1.188e-04    -3.914    -3.925    -0.011     -3.81
   H+              4.719e-10   4.606e-10    -9.326    -9.337    -0.011      0.00
   H2O             5.551e+01   1.000e+00     1.744    -0.000     0.000     18.23
C(-4)         0.000e+00
   CH4             0.000e+00   0.000e+00  -112.715  -112.715     0.000     37.33
C(4)          1.474e-04
   HCO3-           1.210e-04   1.180e-04    -3.917    -3.928    -0.011     25.69
   CO3-2           1.895e-05   1.715e-05    -4.722    -4.766    -0.043     -5.35
   CaCO3           7.086e-06   7.087e-06    -5.150    -5.150     0.000    -14.53
   CaHCO3+         2.472e-07   2.412e-07    -6.607    -6.618    -0.011     10.29
   CO2             1.050e-07   1.050e-07    -6.979    -6.979     0.000     35.66
   (CO2)2          4.138e-16   4.138e-16   -15.383   -15.383     0.000     71.32
Ca            1.474e-04
   Ca+2            1.400e-04   1.267e-04    -3.854    -3.897    -0.043    -18.26
   CaCO3           7.086e-06   7.087e-06    -5.150    -5.150     0.000    -14.53
   CaHCO3+         2.472e-07   2.412e-07    -6.607    -6.618    -0.011     10.29
   CaOH+           4.683e-08   4.567e-08    -7.329    -7.340    -0.011     (0)  
H(0)          2.137e-35
   H2              1.069e-35   1.069e-35   -34.971   -34.971     0.000     28.59
O(0)          2.029e-15
   O2              1.014e-15   1.014e-15   -14.994   -14.994     0.000     31.92

------------------------------Saturation indices-------------------------------

  Phase               SI** log IAP   log K(323 K,   1 atm)

  Aragonite        -0.13     -8.66   -8.54  CaCO3
  Calcite           0.00     -8.66   -8.66  CaCO3
  CH4(g)         -109.76   -112.71   -2.96  CH4
  CO2(g)           -5.27     -6.98   -1.71  CO2
  H2(g)           -31.83    -34.97   -3.14  H2
  H2O(g)           -0.92     -0.00    0.92  H2O
  O2(g)           -11.96    -14.99   -3.03  O2

**For a gas, SI = log10(fugacity). Fugacity = pressure * phi / 1 atm.
  For ideal gases, phi = 1.

------------------
End of simulation.
------------------

------------------------------------
Reading input data for simulation 3.
------------------------------------

----------------------------------
End of Run after 0.048913 Seconds.
----------------------------------

