   Input file: ../examples/Phrqc2.pqi
  Output file: ../examples/Phrqc2.pqi.out
Database file: ../database/phreeqc-toner-catling.dat

------------------
Reading data base.
------------------

	PITZER
	SOLUTION_MASTER_SPECIES
	SOLUTION_SPECIES
	PHASES
	PITZER
------------------------------------
Reading input data for simulation 1.
------------------------------------

	DATABASE ../database/phreeqc-toner-catling.dat
	SOLUTION 1
	    temp      25
	    pH        7
	    pe        4
	    redox     pe
	    units     mmol/kgw
	    density   1
	    water    1 # kg
	SELECTED_OUTPUT 1
	    file                 ../examples/Phrqc2.sel
	    reset                false
	    ph                   true
	    molalities           CO3-2  HCO3-
	    saturation_indices   CO2(g)
	USE SOLUTION 1
	 EQUILIBRIUM_PHASES 1
	 CO2(g)   2 100
	 Natron    0 0
	 Nahcolite 0 10
	 Trona     0 0
	 Na2CO3:H2O 0 0
	 Na2CO3:7H2O 0 0
	 END
-------------------------------------------
Beginning of initial solution calculations.
-------------------------------------------

Initial solution 1.	

-----------------------------Solution composition------------------------------

	Elements           Molality       Moles

	Pure water     

----------------------------Description of solution----------------------------

                                       pH  =   7.000    
                                       pe  =   4.000    
                        Activity of water  =   1.000
                 Ionic strength (mol/kgw)  =   1.004e-07
                       Mass of water (kg)  =   1.000e+00
                 Total alkalinity (eq/kg)  =   6.294e-10
                         Temperature (°C)  =  25.00
                  Electrical balance (eq)  =  -6.294e-10
 Percent error, 100*(Cat-|An|)/(Cat+|An|)  =  -0.31
                               Iterations  =   3
                         Gamma iterations  =   2
                      Osmotic coefficient  =   0.99988
                                  Total H  = 1.110186e+02
                                  Total O  = 5.550930e+01

----------------------------Distribution of species----------------------------

                                                    Unscaled  Unscaled
                                Unscaled       Log       Log       Log    mole V
   Species          Molality    Activity  Molality  Activity     Gamma   cm³/mol

   OH-             1.007e-07   1.006e-07    -6.997    -6.997    -0.000     (0)  
   H+              1.000e-07   1.000e-07    -7.000    -7.000    -0.000      0.00
   H2O             5.551e+01   1.000e+00     1.744    -0.000     0.000     18.07

------------------------------Saturation indices-------------------------------

  Phase               SI** log IAP   log K(298 K,   1 atm)


**For a gas, SI = log10(fugacity). Fugacity = pressure * phi / 1 atm.
  For ideal gases, phi = 1.

-----------------------------------------
Beginning of batch-reaction calculations.
-----------------------------------------

Reaction step 1.

Using solution 1.	
Using pure phase assemblage 1.	

-------------------------------Phase assemblage--------------------------------

                                                      Moles in assemblage
Phase               SI  log IAP  log K(T, P)   Initial       Final       Delta

CO2(g)            2.00     0.53     -1.47    1.000e+02   9.707e+01  -2.928e+00
Na2CO3:7H2O      -5.07    -5.52     -0.45    0.000e+00           0   0.000e+00
Na2CO3:H2O       -5.75    -5.28      0.47    0.000e+00           0   0.000e+00
Nahcolite        -0.00    -0.39     -0.39    1.000e+01   9.076e+00  -9.240e-01
Natron           -4.84    -5.63     -0.80    0.000e+00           0   0.000e+00
Trona            -4.69    -5.71     -1.02    0.000e+00           0   0.000e+00

-----------------------------Solution composition------------------------------

	Elements           Molality       Moles

	C                 3.852e+00   3.852e+00
	Na                9.240e-01   9.240e-01

----------------------------Description of solution----------------------------

                                       pH  =   5.561      Charge balance
                                       pe  =   4.000      Adjusted to redox equilibrium
                        Activity of water  =   0.915
                 Ionic strength (mol/kgw)  =   9.240e-01
                       Mass of water (kg)  =   1.000e+00
                 Total alkalinity (eq/kg)  =   9.240e-01
                       Total CO2 (mol/kg)  =   3.852e+00
                         Temperature (°C)  =  25.00
                  Electrical balance (eq)  =  -6.301e-10
 Percent error, 100*(Cat-|An|)/(Cat+|An|)  =  -0.00
                               Iterations  =  20
                         Gamma iterations  =   4
                      Osmotic coefficient  =   1.03701
                                  Total H  = 1.119426e+02
                                  Total O  = 6.413756e+01

----------------------------Distribution of species----------------------------

                                                    Unscaled  Unscaled
                                Unscaled       Log       Log       Log    mole V
   Species          Molality    Activity  Molality  Activity     Gamma   cm³/mol

   H+              5.081e-06   2.746e-06    -5.294    -5.561    -0.267      0.00
   OH-             6.620e-09   3.352e-09    -8.179    -8.475    -0.296     (0)  
   H2O             5.551e+01   9.146e-01     1.744    -0.039     0.000     18.07
C(4)          3.852e+00
   CO2             2.928e+00   3.404e+00     0.467     0.532     0.065     (0)  
   HCO3-           9.238e-01   5.045e-01    -0.034    -0.297    -0.263     (0)  
   CO3-2           7.325e-05   8.617e-06    -4.135    -5.065    -0.929     (0)  
Na            9.240e-01
   Na+             9.240e-01   8.132e-01    -0.034    -0.090    -0.055     (0)  

------------------------------Saturation indices-------------------------------

  Phase               SI** log IAP   log K(298 K,   1 atm)

  CO2(g)            2.00      0.53   -1.47  CO2
  Na2CO3:7H2O      -5.07     -5.52   -0.45  Na2CO3:7H2O
  Na2CO3:H2O       -5.75     -5.28    0.47  Na2CO3:H2O
  Nahcolite        -0.00     -0.39   -0.39  NaHCO3
  Natron           -4.84     -5.63   -0.80  Na2CO3:10H2O
  Trona            -4.69     -5.71   -1.02  Na3H(CO3)2:2H2O

**For a gas, SI = log10(fugacity). Fugacity = pressure * phi / 1 atm.
  For ideal gases, phi = 1.

------------------
End of simulation.
------------------

------------------------------------
Reading input data for simulation 2.
------------------------------------

	USE SOLUTION 1
	 EQUILIBRIUM_PHASES 1
	 CO2(g)   1.9 100
	 Natron    0 0
	 Nahcolite 0 10
	 Trona     0 0
	 Na2CO3:H2O 0 0
	 Na2CO3:7H2O 0 0
	 END
-----------------------------------------
Beginning of batch-reaction calculations.
-----------------------------------------

Reaction step 1.

Using solution 1.	
Using pure phase assemblage 1.	

-------------------------------Phase assemblage--------------------------------

                                                      Moles in assemblage
Phase               SI  log IAP  log K(T, P)   Initial       Final       Delta

CO2(g)            1.90     0.43     -1.47    1.000e+02   9.770e+01  -2.304e+00
Na2CO3:7H2O      -4.94    -5.39     -0.45    0.000e+00           0   0.000e+00
Na2CO3:H2O       -5.65    -5.18      0.47    0.000e+00           0   0.000e+00
Nahcolite        -0.00    -0.39     -0.39    1.000e+01   9.019e+00  -9.814e-01
Natron           -4.69    -5.49     -0.80    0.000e+00           0   0.000e+00
Trona            -4.59    -5.60     -1.02    0.000e+00           0   0.000e+00

-----------------------------Solution composition------------------------------

	Elements           Molality       Moles

	C                 3.286e+00   3.286e+00
	Na                9.814e-01   9.814e-01

----------------------------Description of solution----------------------------

                                       pH  =   5.679      Charge balance
                                       pe  =   4.000      Adjusted to redox equilibrium
                        Activity of water  =   0.925
                 Ionic strength (mol/kgw)  =   9.815e-01
                       Mass of water (kg)  =   1.000e+00
                 Total alkalinity (eq/kg)  =   9.814e-01
                       Total CO2 (mol/kg)  =   3.286e+00
                         Temperature (°C)  =  25.00
                  Electrical balance (eq)  =  -6.306e-10
 Percent error, 100*(Cat-|An|)/(Cat+|An|)  =  -0.00
                               Iterations  =  19
                         Gamma iterations  =   4
                      Osmotic coefficient  =   1.02023
                                  Total H  = 1.120000e+02
                                  Total O  = 6.306204e+01

----------------------------Distribution of species----------------------------

                                                    Unscaled  Unscaled
                                Unscaled       Log       Log       Log    mole V
   Species          Molality    Activity  Molality  Activity     Gamma   cm³/mol

   H+              3.914e-06   2.096e-06    -5.407    -5.679    -0.271      0.00
   OH-             8.927e-09   4.440e-09    -8.049    -8.353    -0.303     (0)  
   H2O             5.551e+01   9.246e-01     1.744    -0.034     0.000     18.07
C(4)          3.286e+00
   CO2             2.304e+00   2.704e+00     0.363     0.432     0.069     (0)  
   HCO3-           9.812e-01   5.308e-01    -0.008    -0.275    -0.267     (0)  
   CO3-2           1.049e-04   1.188e-05    -3.979    -4.925    -0.946     (0)  
Na            9.814e-01
   Na+             9.814e-01   7.729e-01    -0.008    -0.112    -0.104     (0)  

------------------------------Saturation indices-------------------------------

  Phase               SI** log IAP   log K(298 K,   1 atm)

  CO2(g)            1.90      0.43   -1.47  CO2
  Na2CO3:7H2O      -4.94     -5.39   -0.45  Na2CO3:7H2O
  Na2CO3:H2O       -5.65     -5.18    0.47  Na2CO3:H2O
  Nahcolite        -0.00     -0.39   -0.39  NaHCO3
  Natron           -4.69     -5.49   -0.80  Na2CO3:10H2O
  Trona            -4.59     -5.60   -1.02  Na3H(CO3)2:2H2O

**For a gas, SI = log10(fugacity). Fugacity = pressure * phi / 1 atm.
  For ideal gases, phi = 1.

------------------
End of simulation.
------------------

------------------------------------
Reading input data for simulation 3.
------------------------------------

	USE SOLUTION 1
	 EQUILIBRIUM_PHASES 1
	 CO2(g)   1.8 100
	 Natron    0 0
	 Nahcolite 0 10
	 Trona     0 0
	 Na2CO3:H2O 0 0
	 Na2CO3:7H2O 0 0
	 END
-----------------------------------------
Beginning of batch-reaction calculations.
-----------------------------------------

Reaction step 1.

Using solution 1.	
Using pure phase assemblage 1.	

-------------------------------Phase assemblage--------------------------------

                                                      Moles in assemblage
Phase               SI  log IAP  log K(T, P)   Initial       Final       Delta

CO2(g)            1.80     0.33     -1.47    1.000e+02   9.818e+01  -1.816e+00
Na2CO3:7H2O      -4.82    -5.27     -0.45    0.000e+00           0   0.000e+00
Na2CO3:H2O       -5.55    -5.08      0.47    0.000e+00           0   0.000e+00
Nahcolite        -0.00    -0.39     -0.39    1.000e+01   8.971e+00  -1.029e+00
Natron           -4.56    -5.36     -0.80    0.000e+00           0   0.000e+00
Trona            -4.48    -5.50     -1.02    0.000e+00           0   0.000e+00

-----------------------------Solution composition------------------------------

	Elements           Molality       Moles

	C                 2.845e+00   2.845e+00
	Na                1.029e+00   1.029e+00

----------------------------Description of solution----------------------------

                                       pH  =   5.792      Charge balance
                                       pe  =   4.000      Adjusted to redox equilibrium
                        Activity of water  =   0.932
                 Ionic strength (mol/kgw)  =   1.029e+00
                       Mass of water (kg)  =   1.000e+00
                 Total alkalinity (eq/kg)  =   1.029e+00
                       Total CO2 (mol/kg)  =   2.845e+00
                         Temperature (°C)  =  25.00
                  Electrical balance (eq)  =  -6.309e-10
 Percent error, 100*(Cat-|An|)/(Cat+|An|)  =  -0.00
                               Iterations  =  19
                         Gamma iterations  =   4
                      Osmotic coefficient  =   1.00193
                                  Total H  = 1.120474e+02
                                  Total O  = 6.222816e+01

----------------------------Distribution of species----------------------------

                                                    Unscaled  Unscaled
                                Unscaled       Log       Log       Log    mole V
   Species          Molality    Activity  Molality  Activity     Gamma   cm³/mol

   H+              3.035e-06   1.613e-06    -5.518    -5.792    -0.274      0.00
   OH-             1.186e-08   5.816e-09    -7.926    -8.235    -0.310     (0)  
   H2O             5.551e+01   9.325e-01     1.744    -0.030     0.000     18.07
C(4)          2.845e+00
   CO2             1.816e+00   2.148e+00     0.259     0.332     0.073     (0)  
   HCO3-           1.029e+00   5.523e-01     0.012    -0.258    -0.270     (0)  
   CO3-2           1.460e-04   1.605e-05    -3.836    -4.794    -0.959     (0)  
Na            1.029e+00
   Na+             1.029e+00   7.428e-01     0.012    -0.129    -0.141     (0)  

------------------------------Saturation indices-------------------------------

  Phase               SI** log IAP   log K(298 K,   1 atm)

  CO2(g)            1.80      0.33   -1.47  CO2
  Na2CO3:7H2O      -4.82     -5.27   -0.45  Na2CO3:7H2O
  Na2CO3:H2O       -5.55     -5.08    0.47  Na2CO3:H2O
  Nahcolite        -0.00     -0.39   -0.39  NaHCO3
  Natron           -4.56     -5.36   -0.80  Na2CO3:10H2O
  Trona            -4.48     -5.50   -1.02  Na3H(CO3)2:2H2O

**For a gas, SI = log10(fugacity). Fugacity = pressure * phi / 1 atm.
  For ideal gases, phi = 1.

------------------
End of simulation.
------------------

------------------------------------
Reading input data for simulation 4.
------------------------------------

	USE SOLUTION 1
	 EQUILIBRIUM_PHASES 1
	 CO2(g)   1.7 100
	 Natron    0 0
	 Nahcolite 0 10
	 Trona     0 0
	 Na2CO3:H2O 0 0
	 Na2CO3:7H2O 0 0
	 END
-----------------------------------------
Beginning of batch-reaction calculations.
-----------------------------------------

Reaction step 1.

Using solution 1.	
Using pure phase assemblage 1.	

-------------------------------Phase assemblage--------------------------------

                                                      Moles in assemblage
Phase               SI  log IAP  log K(T, P)   Initial       Final       Delta

CO2(g)            1.70     0.23     -1.47    1.000e+02   9.857e+01  -1.433e+00
Na2CO3:7H2O      -4.70    -5.15     -0.45    0.000e+00           0   0.000e+00
Na2CO3:H2O       -5.45    -4.98      0.47    0.000e+00           0   0.000e+00
Nahcolite        -0.00    -0.39     -0.39    1.000e+01   8.932e+00  -1.068e+00
Natron           -4.44    -5.23     -0.80    0.000e+00           0   0.000e+00
Trona            -4.38    -5.40     -1.02    0.000e+00           0   0.000e+00

-----------------------------Solution composition------------------------------

	Elements           Molality       Moles

	C                 2.501e+00   2.501e+00
	Na                1.068e+00   1.068e+00

----------------------------Description of solution----------------------------

                                       pH  =   5.903      Charge balance
                                       pe  =   4.000      Adjusted to redox equilibrium
                        Activity of water  =   0.939
                 Ionic strength (mol/kgw)  =   1.068e+00
                       Mass of water (kg)  =   1.000e+00
                 Total alkalinity (eq/kg)  =   1.068e+00
                       Total CO2 (mol/kg)  =   2.501e+00
                         Temperature (°C)  =  25.00
                  Electrical balance (eq)  =  -6.311e-10
 Percent error, 100*(Cat-|An|)/(Cat+|An|)  =  -0.00
                               Iterations  =  19
                         Gamma iterations  =   4
                      Osmotic coefficient  =   0.98327
                                  Total H  = 1.120862e+02
                                  Total O  = 6.157906e+01

----------------------------Distribution of species----------------------------

                                                    Unscaled  Unscaled
                                Unscaled       Log       Log       Log    mole V
   Species          Molality    Activity  Molality  Activity     Gamma   cm³/mol

   H+              2.366e-06   1.251e-06    -5.626    -5.903    -0.277      0.00
   OH-             1.559e-08   7.553e-09    -7.807    -8.122    -0.315     (0)  
   H2O             5.551e+01   9.387e-01     1.744    -0.027     0.000     18.07
C(4)          2.501e+00
   CO2             1.434e+00   1.706e+00     0.156     0.232     0.076     (0)  
   HCO3-           1.067e+00   5.697e-01     0.028    -0.244    -0.273     (0)  
   CO3-2           1.990e-04   2.136e-05    -3.701    -4.670    -0.969     (0)  
Na            1.068e+00
   Na+             1.068e+00   7.201e-01     0.028    -0.143    -0.171     (0)  

------------------------------Saturation indices-------------------------------

  Phase               SI** log IAP   log K(298 K,   1 atm)

  CO2(g)            1.70      0.23   -1.47  CO2
  Na2CO3:7H2O      -4.70     -5.15   -0.45  Na2CO3:7H2O
  Na2CO3:H2O       -5.45     -4.98    0.47  Na2CO3:H2O
  Nahcolite        -0.00     -0.39   -0.39  NaHCO3
  Natron           -4.44     -5.23   -0.80  Na2CO3:10H2O
  Trona            -4.38     -5.40   -1.02  Na3H(CO3)2:2H2O

**For a gas, SI = log10(fugacity). Fugacity = pressure * phi / 1 atm.
  For ideal gases, phi = 1.

------------------
End of simulation.
------------------

------------------------------------
Reading input data for simulation 5.
------------------------------------

	USE SOLUTION 1
	 EQUILIBRIUM_PHASES 1
	 CO2(g)   1.6 100
	 Natron    0 0
	 Nahcolite 0 10
	 Trona     0 0
	 Na2CO3:H2O 0 0
	 Na2CO3:7H2O 0 0
	 END
-----------------------------------------
Beginning of batch-reaction calculations.
-----------------------------------------

Reaction step 1.

Using solution 1.	
Using pure phase assemblage 1.	

-------------------------------Phase assemblage--------------------------------

                                                      Moles in assemblage
Phase               SI  log IAP  log K(T, P)   Initial       Final       Delta

CO2(g)            1.60     0.13     -1.47    1.000e+02   9.887e+01  -1.133e+00
Na2CO3:7H2O      -4.59    -5.03     -0.45    0.000e+00           0   0.000e+00
Na2CO3:H2O       -5.35    -4.88      0.47    0.000e+00           0   0.000e+00
Nahcolite        -0.00    -0.39     -0.39    1.000e+01   8.901e+00  -1.099e+00
Natron           -4.31    -5.11     -0.80    0.000e+00           0   0.000e+00
Trona            -4.28    -5.30     -1.02    0.000e+00           0   0.000e+00

-----------------------------Solution composition------------------------------

	Elements           Molality       Moles

	C                 2.232e+00   2.232e+00
	Na                1.099e+00   1.099e+00

----------------------------Description of solution----------------------------

                                       pH  =   6.011      Charge balance
                                       pe  =   4.000      Adjusted to redox equilibrium
                        Activity of water  =   0.944
                 Ionic strength (mol/kgw)  =   1.099e+00
                       Mass of water (kg)  =   1.000e+00
                 Total alkalinity (eq/kg)  =   1.099e+00
                       Total CO2 (mol/kg)  =   2.232e+00
                         Temperature (°C)  =  25.00
                  Electrical balance (eq)  =  -6.312e-10
 Percent error, 100*(Cat-|An|)/(Cat+|An|)  =  -0.00
                               Iterations  =  18
                         Gamma iterations  =   4
                      Osmotic coefficient  =   0.96517
                                  Total H  = 1.121177e+02
                                  Total O  = 6.107204e+01

----------------------------Distribution of species----------------------------

                                                    Unscaled  Unscaled
                                Unscaled       Log       Log       Log    mole V
   Species          Molality    Activity  Molality  Activity     Gamma   cm³/mol

   H+              1.852e-06   9.747e-07    -5.732    -6.011    -0.279      0.00
   OH-             2.030e-08   9.743e-09    -7.692    -8.011    -0.319     (0)  
   H2O             5.551e+01   9.437e-01     1.744    -0.025     0.000     18.07
C(4)          2.232e+00
   CO2             1.133e+00   1.355e+00     0.054     0.132     0.078     (0)  
   HCO3-           1.099e+00   5.838e-01     0.041    -0.234    -0.275     (0)  
   CO3-2           2.667e-04   2.809e-05    -3.574    -4.551    -0.978     (0)  
Na            1.099e+00
   Na+             1.099e+00   7.027e-01     0.041    -0.153    -0.194     (0)  

------------------------------Saturation indices-------------------------------

  Phase               SI** log IAP   log K(298 K,   1 atm)

  CO2(g)            1.60      0.13   -1.47  CO2
  Na2CO3:7H2O      -4.59     -5.03   -0.45  Na2CO3:7H2O
  Na2CO3:H2O       -5.35     -4.88    0.47  Na2CO3:H2O
  Nahcolite        -0.00     -0.39   -0.39  NaHCO3
  Natron           -4.31     -5.11   -0.80  Na2CO3:10H2O
  Trona            -4.28     -5.30   -1.02  Na3H(CO3)2:2H2O

**For a gas, SI = log10(fugacity). Fugacity = pressure * phi / 1 atm.
  For ideal gases, phi = 1.

------------------
End of simulation.
------------------

------------------------------------
Reading input data for simulation 6.
------------------------------------

	USE SOLUTION 1
	 EQUILIBRIUM_PHASES 1
	 CO2(g)   1.5 100
	 Natron    0 0
	 Nahcolite 0 10
	 Trona     0 0
	 Na2CO3:H2O 0 0
	 Na2CO3:7H2O 0 0
	 END
-----------------------------------------
Beginning of batch-reaction calculations.
-----------------------------------------

Reaction step 1.

Using solution 1.	
Using pure phase assemblage 1.	

-------------------------------Phase assemblage--------------------------------

                                                      Moles in assemblage
Phase               SI  log IAP  log K(T, P)   Initial       Final       Delta

CO2(g)            1.50     0.03     -1.47    1.000e+02   9.910e+01  -8.959e-01
Na2CO3:7H2O      -4.47    -4.92     -0.45    0.000e+00           0   0.000e+00
Na2CO3:H2O       -5.25    -4.78      0.47    0.000e+00           0   0.000e+00
Nahcolite        -0.00    -0.39     -0.39    1.000e+01   8.875e+00  -1.125e+00
Natron           -4.20    -4.99     -0.80    0.000e+00           0   0.000e+00
Trona            -4.18    -5.19     -1.02    0.000e+00           0   0.000e+00

-----------------------------Solution composition------------------------------

	Elements           Molality       Moles

	C                 2.020e+00   2.020e+00
	Na                1.125e+00   1.125e+00

----------------------------Description of solution----------------------------

                                       pH  =   6.118      Charge balance
                                       pe  =   4.000      Adjusted to redox equilibrium
                        Activity of water  =   0.948
                 Ionic strength (mol/kgw)  =   1.125e+00
                       Mass of water (kg)  =   1.000e+00
                 Total alkalinity (eq/kg)  =   1.125e+00
                       Total CO2 (mol/kg)  =   2.020e+00
                         Temperature (°C)  =  25.00
                  Electrical balance (eq)  =  -6.311e-10
 Percent error, 100*(Cat-|An|)/(Cat+|An|)  =  -0.00
                               Iterations  =  18
                         Gamma iterations  =   4
                      Osmotic coefficient  =   0.94830
                                  Total H  = 1.121432e+02
                                  Total O  = 6.067481e+01

----------------------------Distribution of species----------------------------

                                                    Unscaled  Unscaled
                                Unscaled       Log       Log       Log    mole V
   Species          Molality    Activity  Molality  Activity     Gamma   cm³/mol

   H+              1.454e-06   7.627e-07    -5.837    -6.118    -0.280      0.00
   OH-             2.625e-08   1.250e-08    -7.581    -7.903    -0.322     (0)  
   H2O             5.551e+01   9.477e-01     1.744    -0.023     0.000     18.07
C(4)          2.020e+00
   HCO3-           1.124e+00   5.951e-01     0.051    -0.225    -0.276     (0)  
   CO2             8.962e-01   1.076e+00    -0.048     0.032     0.080     (0)  
   CO3-2           3.528e-04   3.659e-05    -3.452    -4.437    -0.984     (0)  
Na            1.125e+00
   Na+             1.125e+00   6.894e-01     0.051    -0.162    -0.213     (0)  

------------------------------Saturation indices-------------------------------

  Phase               SI** log IAP   log K(298 K,   1 atm)

  CO2(g)            1.50      0.03   -1.47  CO2
  Na2CO3:7H2O      -4.47     -4.92   -0.45  Na2CO3:7H2O
  Na2CO3:H2O       -5.25     -4.78    0.47  Na2CO3:H2O
  Nahcolite        -0.00     -0.39   -0.39  NaHCO3
  Natron           -4.20     -4.99   -0.80  Na2CO3:10H2O
  Trona            -4.18     -5.19   -1.02  Na3H(CO3)2:2H2O

**For a gas, SI = log10(fugacity). Fugacity = pressure * phi / 1 atm.
  For ideal gases, phi = 1.

------------------
End of simulation.
------------------

------------------------------------
Reading input data for simulation 7.
------------------------------------

	USE SOLUTION 1
	 EQUILIBRIUM_PHASES 1
	 CO2(g)   1.4 100
	 Natron    0 0
	 Nahcolite 0 10
	 Trona     0 0
	 Na2CO3:H2O 0 0
	 Na2CO3:7H2O 0 0
	 END
-----------------------------------------
Beginning of batch-reaction calculations.
-----------------------------------------

Reaction step 1.

Using solution 1.	
Using pure phase assemblage 1.	

-------------------------------Phase assemblage--------------------------------

                                                      Moles in assemblage
Phase               SI  log IAP  log K(T, P)   Initial       Final       Delta

CO2(g)            1.40    -0.07     -1.47    1.000e+02   9.929e+01  -7.091e-01
Na2CO3:7H2O      -4.37    -4.81     -0.45    0.000e+00           0   0.000e+00
Na2CO3:H2O       -5.15    -4.68      0.47    0.000e+00           0   0.000e+00
Nahcolite        -0.00    -0.39     -0.39    1.000e+01   8.855e+00  -1.145e+00
Natron           -4.09    -4.88     -0.80    0.000e+00           0   0.000e+00
Trona            -4.07    -5.09     -1.02    0.000e+00           0   0.000e+00

-----------------------------Solution composition------------------------------

	Elements           Molality       Moles

	C                 1.854e+00   1.854e+00
	Na                1.145e+00   1.145e+00

----------------------------Description of solution----------------------------

                                       pH  =   6.223      Charge balance
                                       pe  =   4.000      Adjusted to redox equilibrium
                        Activity of water  =   0.951
                 Ionic strength (mol/kgw)  =   1.146e+00
                       Mass of water (kg)  =   1.000e+00
                 Total alkalinity (eq/kg)  =   1.145e+00
                       Total CO2 (mol/kg)  =   1.854e+00
                         Temperature (°C)  =  25.00
                  Electrical balance (eq)  =  -6.311e-10
 Percent error, 100*(Cat-|An|)/(Cat+|An|)  =  -0.00
                               Iterations  =  18
                         Gamma iterations  =   4
                      Osmotic coefficient  =   0.93305
                                  Total H  = 1.121637e+02
                                  Total O  = 6.036284e+01

----------------------------Distribution of species----------------------------

                                                    Unscaled  Unscaled
                                Unscaled       Log       Log       Log    mole V
   Species          Molality    Activity  Molality  Activity     Gamma   cm³/mol

   H+              1.145e-06   5.988e-07    -5.941    -6.223    -0.281      0.00
   OH-             3.375e-08   1.598e-08    -7.472    -7.796    -0.325     (0)  
   H2O             5.551e+01   9.508e-01     1.744    -0.022     0.000     18.07
C(4)          1.854e+00
   HCO3-           1.144e+00   6.041e-01     0.059    -0.219    -0.277     (0)  
   CO2             7.095e-01   8.551e-01    -0.149    -0.068     0.081     (0)  
   CO3-2           4.618e-04   4.732e-05    -3.336    -4.325    -0.989     (0)  
Na            1.145e+00
   Na+             1.145e+00   6.790e-01     0.059    -0.168    -0.227     (0)  

------------------------------Saturation indices-------------------------------

  Phase               SI** log IAP   log K(298 K,   1 atm)

  CO2(g)            1.40     -0.07   -1.47  CO2
  Na2CO3:7H2O      -4.37     -4.81   -0.45  Na2CO3:7H2O
  Na2CO3:H2O       -5.15     -4.68    0.47  Na2CO3:H2O
  Nahcolite        -0.00     -0.39   -0.39  NaHCO3
  Natron           -4.09     -4.88   -0.80  Na2CO3:10H2O
  Trona            -4.07     -5.09   -1.02  Na3H(CO3)2:2H2O

**For a gas, SI = log10(fugacity). Fugacity = pressure * phi / 1 atm.
  For ideal gases, phi = 1.

------------------
End of simulation.
------------------

------------------------------------
Reading input data for simulation 8.
------------------------------------

	USE SOLUTION 1
	 EQUILIBRIUM_PHASES 1
	 CO2(g)   1.3 100
	 Natron    0 0
	 Nahcolite 0 10
	 Trona     0 0
	 Na2CO3:H2O 0 0
	 Na2CO3:7H2O 0 0
	 END
-----------------------------------------
Beginning of batch-reaction calculations.
-----------------------------------------

Reaction step 1.

Using solution 1.	
Using pure phase assemblage 1.	

-------------------------------Phase assemblage--------------------------------

                                                      Moles in assemblage
Phase               SI  log IAP  log K(T, P)   Initial       Final       Delta

CO2(g)            1.30    -0.17     -1.47    1.000e+02   9.944e+01  -5.615e-01
Na2CO3:7H2O      -4.26    -4.71     -0.45    0.000e+00           0   0.000e+00
Na2CO3:H2O       -5.05    -4.58      0.47    0.000e+00           0   0.000e+00
Nahcolite        -0.00    -0.39     -0.39    1.000e+01   8.838e+00  -1.162e+00
Natron           -3.97    -4.77     -0.80    0.000e+00           0   0.000e+00
Trona            -3.97    -4.99     -1.02    0.000e+00           0   0.000e+00

-----------------------------Solution composition------------------------------

	Elements           Molality       Moles

	C                 1.723e+00   1.723e+00
	Na                1.162e+00   1.162e+00

----------------------------Description of solution----------------------------

                                       pH  =   6.327      Charge balance
                                       pe  =   4.000      Adjusted to redox equilibrium
                        Activity of water  =   0.953
                 Ionic strength (mol/kgw)  =   1.162e+00
                       Mass of water (kg)  =   1.000e+00
                 Total alkalinity (eq/kg)  =   1.162e+00
                       Total CO2 (mol/kg)  =   1.723e+00
                         Temperature (°C)  =  25.00
                  Electrical balance (eq)  =  -6.310e-10
 Percent error, 100*(Cat-|An|)/(Cat+|An|)  =  -0.00
                               Iterations  =  18
                         Gamma iterations  =   4
                      Osmotic coefficient  =   0.91960
                                  Total H  = 1.121803e+02
                                  Total O  = 6.011735e+01

----------------------------Distribution of species----------------------------

                                                    Unscaled  Unscaled
                                Unscaled       Log       Log       Log    mole V
   Species          Molality    Activity  Molality  Activity     Gamma   cm³/mol

   H+              9.028e-07   4.713e-07    -6.044    -6.327    -0.282      0.00
   OH-             4.321e-08   2.036e-08    -7.364    -7.691    -0.327     (0)  
   H2O             5.551e+01   9.533e-01     1.744    -0.021     0.000     18.07
C(4)          1.723e+00
   HCO3-           1.160e+00   6.113e-01     0.065    -0.214    -0.278     (0)  
   CO2             5.621e-01   6.792e-01    -0.250    -0.168     0.082     (0)  
   CO3-2           5.995e-04   6.084e-05    -3.222    -4.216    -0.994     (0)  
Na            1.162e+00
   Na+             1.162e+00   6.711e-01     0.065    -0.173    -0.238     (0)  

------------------------------Saturation indices-------------------------------

  Phase               SI** log IAP   log K(298 K,   1 atm)

  CO2(g)            1.30     -0.17   -1.47  CO2
  Na2CO3:7H2O      -4.26     -4.71   -0.45  Na2CO3:7H2O
  Na2CO3:H2O       -5.05     -4.58    0.47  Na2CO3:H2O
  Nahcolite        -0.00     -0.39   -0.39  NaHCO3
  Natron           -3.97     -4.77   -0.80  Na2CO3:10H2O
  Trona            -3.97     -4.99   -1.02  Na3H(CO3)2:2H2O

**For a gas, SI = log10(fugacity). Fugacity = pressure * phi / 1 atm.
  For ideal gases, phi = 1.

------------------
End of simulation.
------------------

------------------------------------
Reading input data for simulation 9.
------------------------------------

	USE SOLUTION 1
	 EQUILIBRIUM_PHASES 1
	 CO2(g)   1.2 100
	 Natron    0 0
	 Nahcolite 0 10
	 Trona     0 0
	 Na2CO3:H2O 0 0
	 Na2CO3:7H2O 0 0
	 END
-----------------------------------------
Beginning of batch-reaction calculations.
-----------------------------------------

Reaction step 1.

Using solution 1.	
Using pure phase assemblage 1.	

-------------------------------Phase assemblage--------------------------------

                                                      Moles in assemblage
Phase               SI  log IAP  log K(T, P)   Initial       Final       Delta

CO2(g)            1.20    -0.27     -1.47    1.000e+02   9.956e+01  -4.447e-01
Na2CO3:7H2O      -4.15    -4.60     -0.45    0.000e+00           0   0.000e+00
Na2CO3:H2O       -4.95    -4.48      0.47    0.000e+00           0   0.000e+00
Nahcolite        -0.00    -0.39     -0.39    1.000e+01   8.825e+00  -1.175e+00
Natron           -3.87    -4.66     -0.80    0.000e+00           0   0.000e+00
Trona            -3.87    -4.89     -1.02    0.000e+00           0   0.000e+00

-----------------------------Solution composition------------------------------

	Elements           Molality       Moles

	C                 1.620e+00   1.620e+00
	Na                1.175e+00   1.175e+00

----------------------------Description of solution----------------------------

                                       pH  =   6.430      Charge balance
                                       pe  =   4.000      Adjusted to redox equilibrium
                        Activity of water  =   0.955
                 Ionic strength (mol/kgw)  =   1.176e+00
                       Mass of water (kg)  =   1.000e+00
                 Total alkalinity (eq/kg)  =   1.175e+00
                       Total CO2 (mol/kg)  =   1.620e+00
                         Temperature (°C)  =  25.00
                  Electrical balance (eq)  =  -6.309e-10
 Percent error, 100*(Cat-|An|)/(Cat+|An|)  =  -0.00
                               Iterations  =  18
                         Gamma iterations  =   4
                      Osmotic coefficient  =   0.90797
                                  Total H  = 1.121936e+02
                                  Total O  = 5.992390e+01

----------------------------Distribution of species----------------------------

                                                    Unscaled  Unscaled
                                Unscaled       Log       Log       Log    mole V
   Species          Molality    Activity  Molality  Activity     Gamma   cm³/mol

   H+              7.132e-07   3.717e-07    -6.147    -6.430    -0.283      0.00
   OH-             5.512e-08   2.587e-08    -7.259    -7.587    -0.329     (0)  
   H2O             5.551e+01   9.553e-01     1.744    -0.020     0.000     18.07
C(4)          1.620e+00
   HCO3-           1.173e+00   6.170e-01     0.069    -0.210    -0.279     (0)  
   CO2             4.455e-01   5.395e-01    -0.351    -0.268     0.083     (0)  
   CO3-2           7.733e-04   7.786e-05    -3.112    -4.109    -0.997     (0)  
Na            1.175e+00
   Na+             1.175e+00   6.649e-01     0.070    -0.177    -0.247     (0)  

------------------------------Saturation indices-------------------------------

  Phase               SI** log IAP   log K(298 K,   1 atm)

  CO2(g)            1.20     -0.27   -1.47  CO2
  Na2CO3:7H2O      -4.15     -4.60   -0.45  Na2CO3:7H2O
  Na2CO3:H2O       -4.95     -4.48    0.47  Na2CO3:H2O
  Nahcolite        -0.00     -0.39   -0.39  NaHCO3
  Natron           -3.87     -4.66   -0.80  Na2CO3:10H2O
  Trona            -3.87     -4.89   -1.02  Na3H(CO3)2:2H2O

**For a gas, SI = log10(fugacity). Fugacity = pressure * phi / 1 atm.
  For ideal gases, phi = 1.

------------------
End of simulation.
------------------

-------------------------------------
Reading input data for simulation 10.
-------------------------------------

	USE SOLUTION 1
	 EQUILIBRIUM_PHASES 1
	 CO2(g)   1.1 100
	 Natron    0 0
	 Nahcolite 0 10
	 Trona     0 0
	 Na2CO3:H2O 0 0
	 Na2CO3:7H2O 0 0
	 END
-----------------------------------------
Beginning of batch-reaction calculations.
-----------------------------------------

Reaction step 1.

Using solution 1.	
Using pure phase assemblage 1.	

-------------------------------Phase assemblage--------------------------------

                                                      Moles in assemblage
Phase               SI  log IAP  log K(T, P)   Initial       Final       Delta

CO2(g)            1.10    -0.37     -1.47    1.000e+02   9.965e+01  -3.523e-01
Na2CO3:7H2O      -4.05    -4.50     -0.45    0.000e+00           0   0.000e+00
Na2CO3:H2O       -4.85    -4.38      0.47    0.000e+00           0   0.000e+00
Nahcolite        -0.00    -0.39     -0.39    1.000e+01   8.814e+00  -1.186e+00
Natron           -3.76    -4.56     -0.80    0.000e+00           0   0.000e+00
Trona            -3.77    -4.79     -1.02    0.000e+00           0   0.000e+00

-----------------------------Solution composition------------------------------

	Elements           Molality       Moles

	C                 1.538e+00   1.538e+00
	Na                1.186e+00   1.186e+00

----------------------------Description of solution----------------------------

                                       pH  =   6.532      Charge balance
                                       pe  =   4.000      Adjusted to redox equilibrium
                        Activity of water  =   0.957
                 Ionic strength (mol/kgw)  =   1.187e+00
                       Mass of water (kg)  =   1.000e+00
                 Total alkalinity (eq/kg)  =   1.186e+00
                       Total CO2 (mol/kg)  =   1.538e+00
                         Temperature (°C)  =  25.00
                  Electrical balance (eq)  =  -6.309e-10
 Percent error, 100*(Cat-|An|)/(Cat+|An|)  =  -0.00
                               Iterations  =  18
                         Gamma iterations  =   4
                      Osmotic coefficient  =   0.89808
                                  Total H  = 1.122044e+02
                                  Total O  = 5.977130e+01

----------------------------Distribution of species----------------------------

                                                    Unscaled  Unscaled
                                Unscaled       Log       Log       Log    mole V
   Species          Molality    Activity  Molality  Activity     Gamma   cm³/mol

   H+              5.642e-07   2.936e-07    -6.249    -6.532    -0.284      0.00
   OH-             7.011e-08   3.280e-08    -7.154    -7.484    -0.330     (0)  
   H2O             5.551e+01   9.569e-01     1.744    -0.019     0.000     18.07
C(4)          1.538e+00
   HCO3-           1.184e+00   6.215e-01     0.073    -0.207    -0.280     (0)  
   CO2             3.532e-01   4.285e-01    -0.452    -0.368     0.084     (0)  
   CO3-2           9.923e-04   9.929e-05    -3.003    -4.003    -1.000     (0)  
Na            1.186e+00
   Na+             1.186e+00   6.601e-01     0.074    -0.180    -0.254     (0)  

------------------------------Saturation indices-------------------------------

  Phase               SI** log IAP   log K(298 K,   1 atm)

  CO2(g)            1.10     -0.37   -1.47  CO2
  Na2CO3:7H2O      -4.05     -4.50   -0.45  Na2CO3:7H2O
  Na2CO3:H2O       -4.85     -4.38    0.47  Na2CO3:H2O
  Nahcolite        -0.00     -0.39   -0.39  NaHCO3
  Natron           -3.76     -4.56   -0.80  Na2CO3:10H2O
  Trona            -3.77     -4.79   -1.02  Na3H(CO3)2:2H2O

**For a gas, SI = log10(fugacity). Fugacity = pressure * phi / 1 atm.
  For ideal gases, phi = 1.

------------------
End of simulation.
------------------

-------------------------------------
Reading input data for simulation 11.
-------------------------------------

	USE SOLUTION 1
	 EQUILIBRIUM_PHASES 1
	 CO2(g)   0.999999999999999 100
	 Natron    0 0
	 Nahcolite 0 10
	 Trona     0 0
	 Na2CO3:H2O 0 0
	 Na2CO3:7H2O 0 0
	 END
-----------------------------------------
Beginning of batch-reaction calculations.
-----------------------------------------

Reaction step 1.

Using solution 1.	
Using pure phase assemblage 1.	

-------------------------------Phase assemblage--------------------------------

                                                      Moles in assemblage
Phase               SI  log IAP  log K(T, P)   Initial       Final       Delta

CO2(g)            1.00    -0.47     -1.47    1.000e+02   9.972e+01  -2.789e-01
Na2CO3:7H2O      -3.95    -4.39     -0.45    0.000e+00           0   0.000e+00
Na2CO3:H2O       -4.75    -4.28      0.47    0.000e+00           0   0.000e+00
Nahcolite        -0.00    -0.39     -0.39    1.000e+01   8.805e+00  -1.195e+00
Natron           -3.66    -4.45     -0.80    0.000e+00           0   0.000e+00
Trona            -3.67    -4.69     -1.02    0.000e+00           0   0.000e+00

-----------------------------Solution composition------------------------------

	Elements           Molality       Moles

	C                 1.473e+00   1.474e+00
	Na                1.195e+00   1.195e+00

----------------------------Description of solution----------------------------

                                       pH  =   6.634      Charge balance
                                       pe  =   4.000      Adjusted to redox equilibrium
                        Activity of water  =   0.958
                 Ionic strength (mol/kgw)  =   1.196e+00
                       Mass of water (kg)  =   1.000e+00
                 Total alkalinity (eq/kg)  =   1.195e+00
                       Total CO2 (mol/kg)  =   1.473e+00
                         Temperature (°C)  =  25.00
                  Electrical balance (eq)  =  -6.310e-10
 Percent error, 100*(Cat-|An|)/(Cat+|An|)  =  -0.00
                               Iterations  =  18
                         Gamma iterations  =   4
                      Osmotic coefficient  =   0.88976
                                  Total H  = 1.122132e+02
                                  Total O  = 5.965088e+01

----------------------------Distribution of species----------------------------

                                                    Unscaled  Unscaled
                                Unscaled       Log       Log       Log    mole V
   Species          Molality    Activity  Molality  Activity     Gamma   cm³/mol

   H+              4.468e-07   2.322e-07    -6.350    -6.634    -0.284      0.00
   OH-             8.900e-08   4.152e-08    -7.051    -7.382    -0.331     (0)  
   H2O             5.551e+01   9.581e-01     1.744    -0.019     0.000     18.07
C(4)          1.473e+00
   HCO3-           1.192e+00   6.249e-01     0.076    -0.204    -0.280     (0)  
   CO2             2.802e-01   3.404e-01    -0.553    -0.468     0.085     (0)  
   CO3-2           1.268e-03   1.262e-04    -2.897    -3.899    -1.002     (0)  
Na            1.195e+00
   Na+             1.195e+00   6.564e-01     0.077    -0.183    -0.260     (0)  

------------------------------Saturation indices-------------------------------

  Phase               SI** log IAP   log K(298 K,   1 atm)

  CO2(g)            1.00     -0.47   -1.47  CO2
  Na2CO3:7H2O      -3.95     -4.39   -0.45  Na2CO3:7H2O
  Na2CO3:H2O       -4.75     -4.28    0.47  Na2CO3:H2O
  Nahcolite        -0.00     -0.39   -0.39  NaHCO3
  Natron           -3.66     -4.45   -0.80  Na2CO3:10H2O
  Trona            -3.67     -4.69   -1.02  Na3H(CO3)2:2H2O

**For a gas, SI = log10(fugacity). Fugacity = pressure * phi / 1 atm.
  For ideal gases, phi = 1.

------------------
End of simulation.
------------------

-------------------------------------
Reading input data for simulation 12.
-------------------------------------

	USE SOLUTION 1
	 EQUILIBRIUM_PHASES 1
	 CO2(g)   0.899999999999999 100
	 Natron    0 0
	 Nahcolite 0 10
	 Trona     0 0
	 Na2CO3:H2O 0 0
	 Na2CO3:7H2O 0 0
	 END
-----------------------------------------
Beginning of batch-reaction calculations.
-----------------------------------------

Reaction step 1.

Using solution 1.	
Using pure phase assemblage 1.	

-------------------------------Phase assemblage--------------------------------

                                                      Moles in assemblage
Phase               SI  log IAP  log K(T, P)   Initial       Final       Delta

CO2(g)            0.90    -0.57     -1.47    1.000e+02   9.978e+01  -2.207e-01
Na2CO3:7H2O      -3.84    -4.29     -0.45    0.000e+00           0   0.000e+00
Na2CO3:H2O       -4.65    -4.18      0.47    0.000e+00           0   0.000e+00
Nahcolite        -0.00    -0.39     -0.39    1.000e+01   8.798e+00  -1.202e+00
Natron           -3.55    -4.35     -0.80    0.000e+00           0   0.000e+00
Trona            -3.57    -4.59     -1.02    0.000e+00           0   0.000e+00

-----------------------------Solution composition------------------------------

	Elements           Molality       Moles

	C                 1.422e+00   1.422e+00
	Na                1.202e+00   1.202e+00

----------------------------Description of solution----------------------------

                                       pH  =   6.736      Charge balance
                                       pe  =   4.000      Adjusted to redox equilibrium
                        Activity of water  =   0.959
                 Ionic strength (mol/kgw)  =   1.203e+00
                       Mass of water (kg)  =   1.000e+00
                 Total alkalinity (eq/kg)  =   1.202e+00
                       Total CO2 (mol/kg)  =   1.422e+00
                         Temperature (°C)  =  25.00
                  Electrical balance (eq)  =  -6.311e-10
 Percent error, 100*(Cat-|An|)/(Cat+|An|)  =  -0.00
                               Iterations  =  18
                         Gamma iterations  =   4
                      Osmotic coefficient  =   0.88284
                                  Total H  = 1.122203e+02
                                  Total O  = 5.955588e+01

----------------------------Distribution of species----------------------------

                                                    Unscaled  Unscaled
                                Unscaled       Log       Log       Log    mole V
   Species          Molality    Activity  Molality  Activity     Gamma   cm³/mol

   H+              3.541e-07   1.838e-07    -6.451    -6.736    -0.285      0.00
   OH-             1.128e-07   5.250e-08    -6.948    -7.280    -0.332     (0)  
   H2O             5.551e+01   9.591e-01     1.744    -0.018     0.000     18.07
C(4)          1.422e+00
   HCO3-           1.198e+00   6.276e-01     0.079    -0.202    -0.281     (0)  
   CO2             2.223e-01   2.704e-01    -0.653    -0.568     0.085     (0)  
   CO3-2           1.616e-03   1.601e-04    -2.792    -3.796    -1.004     (0)  
Na            1.202e+00
   Na+             1.202e+00   6.536e-01     0.080    -0.185    -0.264     (0)  

------------------------------Saturation indices-------------------------------

  Phase               SI** log IAP   log K(298 K,   1 atm)

  CO2(g)            0.90     -0.57   -1.47  CO2
  Na2CO3:7H2O      -3.84     -4.29   -0.45  Na2CO3:7H2O
  Na2CO3:H2O       -4.65     -4.18    0.47  Na2CO3:H2O
  Nahcolite        -0.00     -0.39   -0.39  NaHCO3
  Natron           -3.55     -4.35   -0.80  Na2CO3:10H2O
  Trona            -3.57     -4.59   -1.02  Na3H(CO3)2:2H2O

**For a gas, SI = log10(fugacity). Fugacity = pressure * phi / 1 atm.
  For ideal gases, phi = 1.

------------------
End of simulation.
------------------

-------------------------------------
Reading input data for simulation 13.
-------------------------------------

	USE SOLUTION 1
	 EQUILIBRIUM_PHASES 1
	 CO2(g)   0.799999999999999 100
	 Natron    0 0
	 Nahcolite 0 10
	 Trona     0 0
	 Na2CO3:H2O 0 0
	 Na2CO3:7H2O 0 0
	 END
-----------------------------------------
Beginning of batch-reaction calculations.
-----------------------------------------

Reaction step 1.

Using solution 1.	
Using pure phase assemblage 1.	

-------------------------------Phase assemblage--------------------------------

                                                      Moles in assemblage
Phase               SI  log IAP  log K(T, P)   Initial       Final       Delta

CO2(g)            0.80    -0.67     -1.47    1.000e+02   9.983e+01  -1.744e-01
Na2CO3:7H2O      -3.74    -4.19     -0.45    0.000e+00           0   0.000e+00
Na2CO3:H2O       -4.55    -4.08      0.47    0.000e+00           0   0.000e+00
Nahcolite        -0.00    -0.39     -0.39    1.000e+01   8.792e+00  -1.208e+00
Natron           -3.45    -4.24     -0.80    0.000e+00           0   0.000e+00
Trona            -3.47    -4.49     -1.02    0.000e+00           0   0.000e+00

-----------------------------Solution composition------------------------------

	Elements           Molality       Moles

	C                 1.382e+00   1.382e+00
	Na                1.208e+00   1.208e+00

----------------------------Description of solution----------------------------

                                       pH  =   6.837      Charge balance
                                       pe  =   4.000      Adjusted to redox equilibrium
                        Activity of water  =   0.960
                 Ionic strength (mol/kgw)  =   1.210e+00
                       Mass of water (kg)  =   1.000e+00
                 Total alkalinity (eq/kg)  =   1.208e+00
                       Total CO2 (mol/kg)  =   1.382e+00
                         Temperature (°C)  =  25.00
                  Electrical balance (eq)  =  -6.313e-10
 Percent error, 100*(Cat-|An|)/(Cat+|An|)  =  -0.00
                               Iterations  =  18
                         Gamma iterations  =   4
                      Osmotic coefficient  =   0.87711
                                  Total H  = 1.122263e+02
                                  Total O  = 5.948100e+01

----------------------------Distribution of species----------------------------

                                                    Unscaled  Unscaled
                                Unscaled       Log       Log       Log    mole V
   Species          Molality    Activity  Molality  Activity     Gamma   cm³/mol

   H+              2.808e-07   1.457e-07    -6.552    -6.837    -0.285      0.00
   OH-             1.427e-07   6.630e-08    -6.846    -7.178    -0.333     (0)  
   H2O             5.551e+01   9.599e-01     1.744    -0.018     0.000     18.07
C(4)          1.382e+00
   HCO3-           1.204e+00   6.296e-01     0.080    -0.201    -0.281     (0)  
   CO2             1.764e-01   2.148e-01    -0.753    -0.668     0.085     (0)  
   CO3-2           2.053e-03   2.027e-04    -2.688    -3.693    -1.006     (0)  
Na            1.208e+00
   Na+             1.208e+00   6.516e-01     0.082    -0.186    -0.268     (0)  

------------------------------Saturation indices-------------------------------

  Phase               SI** log IAP   log K(298 K,   1 atm)

  CO2(g)            0.80     -0.67   -1.47  CO2
  Na2CO3:7H2O      -3.74     -4.19   -0.45  Na2CO3:7H2O
  Na2CO3:H2O       -4.55     -4.08    0.47  Na2CO3:H2O
  Nahcolite        -0.00     -0.39   -0.39  NaHCO3
  Natron           -3.45     -4.24   -0.80  Na2CO3:10H2O
  Trona            -3.47     -4.49   -1.02  Na3H(CO3)2:2H2O

**For a gas, SI = log10(fugacity). Fugacity = pressure * phi / 1 atm.
  For ideal gases, phi = 1.

------------------
End of simulation.
------------------

-------------------------------------
Reading input data for simulation 14.
-------------------------------------

	USE SOLUTION 1
	 EQUILIBRIUM_PHASES 1
	 CO2(g)   0.699999999999999 100
	 Natron    0 0
	 Nahcolite 0 10
	 Trona     0 0
	 Na2CO3:H2O 0 0
	 Na2CO3:7H2O 0 0
	 END
-----------------------------------------
Beginning of batch-reaction calculations.
-----------------------------------------

Reaction step 1.

Using solution 1.	
Using pure phase assemblage 1.	

-------------------------------Phase assemblage--------------------------------

                                                      Moles in assemblage
Phase               SI  log IAP  log K(T, P)   Initial       Final       Delta

CO2(g)            0.70    -0.77     -1.47    1.000e+02   9.986e+01  -1.374e-01
Na2CO3:7H2O      -3.64    -4.09     -0.45    0.000e+00           0   0.000e+00
Na2CO3:H2O       -4.45    -3.98      0.47    0.000e+00           0   0.000e+00
Nahcolite        -0.00    -0.39     -0.39    1.000e+01   8.787e+00  -1.213e+00
Natron           -3.35    -4.14     -0.80    0.000e+00           0   0.000e+00
Trona            -3.37    -4.39     -1.02    0.000e+00           0   0.000e+00

-----------------------------Solution composition------------------------------

	Elements           Molality       Moles

	C                 1.350e+00   1.350e+00
	Na                1.213e+00   1.213e+00

----------------------------Description of solution----------------------------

                                       pH  =   6.937      Charge balance
                                       pe  =   4.000      Adjusted to redox equilibrium
                        Activity of water  =   0.961
                 Ionic strength (mol/kgw)  =   1.215e+00
                       Mass of water (kg)  =   1.000e+00
                 Total alkalinity (eq/kg)  =   1.213e+00
                       Total CO2 (mol/kg)  =   1.350e+00
                         Temperature (°C)  =  25.00
                  Electrical balance (eq)  =  -6.316e-10
 Percent error, 100*(Cat-|An|)/(Cat+|An|)  =  -0.00
                               Iterations  =  19
                         Gamma iterations  =   4
                      Osmotic coefficient  =   0.87239
                                  Total H  = 1.122313e+02
                                  Total O  = 5.942213e+01

----------------------------Distribution of species----------------------------

                                                    Unscaled  Unscaled
                                Unscaled       Log       Log       Log    mole V
   Species          Molality    Activity  Molality  Activity     Gamma   cm³/mol

   H+              2.229e-07   1.155e-07    -6.652    -6.937    -0.285      0.00
   OH-             1.803e-07   8.365e-08    -6.744    -7.078    -0.334     (0)  
   H2O             5.551e+01   9.605e-01     1.744    -0.017     0.000     18.07
C(4)          1.350e+00
   HCO3-           1.207e+00   6.310e-01     0.082    -0.200    -0.282     (0)  
   CO2             1.400e-01   1.706e-01    -0.854    -0.768     0.086     (0)  
   CO3-2           2.603e-03   2.561e-04    -2.585    -3.592    -1.007     (0)  
Na            1.213e+00
   Na+             1.213e+00   6.501e-01     0.084    -0.187    -0.271     (0)  

------------------------------Saturation indices-------------------------------

  Phase               SI** log IAP   log K(298 K,   1 atm)

  CO2(g)            0.70     -0.77   -1.47  CO2
  Na2CO3:7H2O      -3.64     -4.09   -0.45  Na2CO3:7H2O
  Na2CO3:H2O       -4.45     -3.98    0.47  Na2CO3:H2O
  Nahcolite        -0.00     -0.39   -0.39  NaHCO3
  Natron           -3.35     -4.14   -0.80  Na2CO3:10H2O
  Trona            -3.37     -4.39   -1.02  Na3H(CO3)2:2H2O

**For a gas, SI = log10(fugacity). Fugacity = pressure * phi / 1 atm.
  For ideal gases, phi = 1.

------------------
End of simulation.
------------------

-------------------------------------
Reading input data for simulation 15.
-------------------------------------

	USE SOLUTION 1
	 EQUILIBRIUM_PHASES 1
	 CO2(g)   0.599999999999999 100
	 Natron    0 0
	 Nahcolite 0 10
	 Trona     0 0
	 Na2CO3:H2O 0 0
	 Na2CO3:7H2O 0 0
	 END
-----------------------------------------
Beginning of batch-reaction calculations.
-----------------------------------------

Reaction step 1.

Using solution 1.	
Using pure phase assemblage 1.	

-------------------------------Phase assemblage--------------------------------

                                                      Moles in assemblage
Phase               SI  log IAP  log K(T, P)   Initial       Final       Delta

CO2(g)            0.60    -0.87     -1.47    1.000e+02   9.989e+01  -1.079e-01
Na2CO3:7H2O      -3.54    -3.99     -0.45    0.000e+00           0   0.000e+00
Na2CO3:H2O       -4.35    -3.88      0.47    0.000e+00           0   0.000e+00
Nahcolite        -0.00    -0.39     -0.39    1.000e+01   8.783e+00  -1.217e+00
Natron           -3.24    -4.04     -0.80    0.000e+00           0   0.000e+00
Trona            -3.27    -4.29     -1.02    0.000e+00           0   0.000e+00

-----------------------------Solution composition------------------------------

	Elements           Molality       Moles

	C                 1.325e+00   1.325e+00
	Na                1.217e+00   1.217e+00

----------------------------Description of solution----------------------------

                                       pH  =   7.038      Charge balance
                                       pe  =   4.000      Adjusted to redox equilibrium
                        Activity of water  =   0.961
                 Ionic strength (mol/kgw)  =   1.220e+00
                       Mass of water (kg)  =   1.000e+00
                 Total alkalinity (eq/kg)  =   1.217e+00
                       Total CO2 (mol/kg)  =   1.325e+00
                         Temperature (°C)  =  25.00
                  Electrical balance (eq)  =  -6.320e-10
 Percent error, 100*(Cat-|An|)/(Cat+|An|)  =  -0.00
                               Iterations  =  19
                         Gamma iterations  =   4
                      Osmotic coefficient  =   0.86851
                                  Total H  = 1.122356e+02
                                  Total O  = 5.937604e+01

----------------------------Distribution of species----------------------------

                                                    Unscaled  Unscaled
                                Unscaled       Log       Log       Log    mole V
   Species          Molality    Activity  Molality  Activity     Gamma   cm³/mol

   OH-             2.277e-07   1.055e-07    -6.643    -6.977    -0.334     (0)  
   H+              1.770e-07   9.170e-08    -6.752    -7.038    -0.286      0.00
   H2O             5.551e+01   9.610e-01     1.744    -0.017     0.000     18.07
C(4)          1.325e+00
   HCO3-           1.210e+00   6.319e-01     0.083    -0.199    -0.282     (0)  
   CO2             1.111e-01   1.355e-01    -0.954    -0.868     0.086     (0)  
   CO3-2           3.295e-03   3.232e-04    -2.482    -3.491    -1.008     (0)  
Na            1.217e+00
   Na+             1.217e+00   6.492e-01     0.085    -0.188    -0.273     (0)  

------------------------------Saturation indices-------------------------------

  Phase               SI** log IAP   log K(298 K,   1 atm)

  CO2(g)            0.60     -0.87   -1.47  CO2
  Na2CO3:7H2O      -3.54     -3.99   -0.45  Na2CO3:7H2O
  Na2CO3:H2O       -4.35     -3.88    0.47  Na2CO3:H2O
  Nahcolite        -0.00     -0.39   -0.39  NaHCO3
  Natron           -3.24     -4.04   -0.80  Na2CO3:10H2O
  Trona            -3.27     -4.29   -1.02  Na3H(CO3)2:2H2O

**For a gas, SI = log10(fugacity). Fugacity = pressure * phi / 1 atm.
  For ideal gases, phi = 1.

------------------
End of simulation.
------------------

-------------------------------------
Reading input data for simulation 16.
-------------------------------------

	USE SOLUTION 1
	 EQUILIBRIUM_PHASES 1
	 CO2(g)   0.499999999999999 100
	 Natron    0 0
	 Nahcolite 0 10
	 Trona     0 0
	 Na2CO3:H2O 0 0
	 Na2CO3:7H2O 0 0
	 END
-----------------------------------------
Beginning of batch-reaction calculations.
-----------------------------------------

Reaction step 1.

Using solution 1.	
Using pure phase assemblage 1.	

-------------------------------Phase assemblage--------------------------------

                                                      Moles in assemblage
Phase               SI  log IAP  log K(T, P)   Initial       Final       Delta

CO2(g)            0.50    -0.97     -1.47    1.000e+02   9.992e+01  -8.407e-02
Na2CO3:7H2O      -3.44    -3.89     -0.45    0.000e+00           0   0.000e+00
Na2CO3:H2O       -4.25    -3.78      0.47    0.000e+00           0   0.000e+00
Nahcolite        -0.00    -0.39     -0.39    1.000e+01   8.779e+00  -1.221e+00
Natron           -3.14    -3.94     -0.80    0.000e+00           0   0.000e+00
Trona            -3.17    -4.19     -1.02    0.000e+00           0   0.000e+00

-----------------------------Solution composition------------------------------

	Elements           Molality       Moles

	C                 1.305e+00   1.305e+00
	Na                1.221e+00   1.221e+00

----------------------------Description of solution----------------------------

                                       pH  =   7.138      Charge balance
                                       pe  =   4.000      Adjusted to redox equilibrium
                        Activity of water  =   0.961
                 Ionic strength (mol/kgw)  =   1.225e+00
                       Mass of water (kg)  =   1.000e+00
                 Total alkalinity (eq/kg)  =   1.221e+00
                       Total CO2 (mol/kg)  =   1.305e+00
                         Temperature (°C)  =  25.00
                  Electrical balance (eq)  =  -6.326e-10
 Percent error, 100*(Cat-|An|)/(Cat+|An|)  =  -0.00
                               Iterations  =  18
                         Gamma iterations  =   4
                      Osmotic coefficient  =   0.86529
                                  Total H  = 1.122395e+02
                                  Total O  = 5.934022e+01

----------------------------Distribution of species----------------------------

                                                    Unscaled  Unscaled
                                Unscaled       Log       Log       Log    mole V
   Species          Molality    Activity  Molality  Activity     Gamma   cm³/mol

   OH-             2.873e-07   1.329e-07    -6.542    -6.877    -0.335     (0)  
   H+              1.407e-07   7.282e-08    -6.852    -7.138    -0.286      0.00
   H2O             5.551e+01   9.614e-01     1.744    -0.017     0.000     18.07
C(4)          1.305e+00
   HCO3-           1.213e+00   6.323e-01     0.084    -0.199    -0.283     (0)  
   CO2             8.823e-02   1.076e-01    -1.054    -0.968     0.086     (0)  
   CO3-2           4.165e-03   4.073e-04    -2.380    -3.390    -1.010     (0)  
Na            1.221e+00
   Na+             1.221e+00   6.487e-01     0.087    -0.188    -0.275     (0)  

------------------------------Saturation indices-------------------------------

  Phase               SI** log IAP   log K(298 K,   1 atm)

  CO2(g)            0.50     -0.97   -1.47  CO2
  Na2CO3:7H2O      -3.44     -3.89   -0.45  Na2CO3:7H2O
  Na2CO3:H2O       -4.25     -3.78    0.47  Na2CO3:H2O
  Nahcolite        -0.00     -0.39   -0.39  NaHCO3
  Natron           -3.14     -3.94   -0.80  Na2CO3:10H2O
  Trona            -3.17     -4.19   -1.02  Na3H(CO3)2:2H2O

**For a gas, SI = log10(fugacity). Fugacity = pressure * phi / 1 atm.
  For ideal gases, phi = 1.

------------------
End of simulation.
------------------

-------------------------------------
Reading input data for simulation 17.
-------------------------------------

	USE SOLUTION 1
	 EQUILIBRIUM_PHASES 1
	 CO2(g)   0.399999999999999 100
	 Natron    0 0
	 Nahcolite 0 10
	 Trona     0 0
	 Na2CO3:H2O 0 0
	 Na2CO3:7H2O 0 0
	 END
-----------------------------------------
Beginning of batch-reaction calculations.
-----------------------------------------

Reaction step 1.

Using solution 1.	
Using pure phase assemblage 1.	

-------------------------------Phase assemblage--------------------------------

                                                      Moles in assemblage
Phase               SI  log IAP  log K(T, P)   Initial       Final       Delta

CO2(g)            0.40    -1.07     -1.47    1.000e+02   9.994e+01  -6.479e-02
Na2CO3:7H2O      -3.34    -3.78     -0.45    0.000e+00           0   0.000e+00
Na2CO3:H2O       -4.15    -3.68      0.47    0.000e+00           0   0.000e+00
Nahcolite        -0.00    -0.39     -0.39    1.000e+01   8.775e+00  -1.225e+00
Natron           -3.04    -3.84     -0.80    0.000e+00           0   0.000e+00
Trona            -3.07    -4.09     -1.02    0.000e+00           0   0.000e+00

-----------------------------Solution composition------------------------------

	Elements           Molality       Moles

	C                 1.289e+00   1.289e+00
	Na                1.225e+00   1.225e+00

----------------------------Description of solution----------------------------

                                       pH  =   7.238      Charge balance
                                       pe  =   4.000      Adjusted to redox equilibrium
                        Activity of water  =   0.962
                 Ionic strength (mol/kgw)  =   1.230e+00
                       Mass of water (kg)  =   1.000e+00
                 Total alkalinity (eq/kg)  =   1.225e+00
                       Total CO2 (mol/kg)  =   1.289e+00
                         Temperature (°C)  =  25.00
                  Electrical balance (eq)  =  -6.333e-10
 Percent error, 100*(Cat-|An|)/(Cat+|An|)  =  -0.00
                               Iterations  =  18
                         Gamma iterations  =   4
                      Osmotic coefficient  =   0.86262
                                  Total H  = 1.122432e+02
                                  Total O  = 5.931272e+01

----------------------------Distribution of species----------------------------

                                                    Unscaled  Unscaled
                                Unscaled       Log       Log       Log    mole V
   Species          Molality    Activity  Molality  Activity     Gamma   cm³/mol

   OH-             3.623e-07   1.673e-07    -6.441    -6.777    -0.336     (0)  
   H+              1.119e-07   5.786e-08    -6.951    -7.238    -0.286      0.00
   H2O             5.551e+01   9.617e-01     1.744    -0.017     0.000     18.07
C(4)          1.289e+00
   HCO3-           1.214e+00   6.323e-01     0.084    -0.199    -0.283     (0)  
   CO2             7.004e-02   8.551e-02    -1.155    -1.068     0.087     (0)  
   CO3-2           5.259e-03   5.126e-04    -2.279    -3.290    -1.011     (0)  
Na            1.225e+00
   Na+             1.225e+00   6.487e-01     0.088    -0.188    -0.276     (0)  

------------------------------Saturation indices-------------------------------

  Phase               SI** log IAP   log K(298 K,   1 atm)

  CO2(g)            0.40     -1.07   -1.47  CO2
  Na2CO3:7H2O      -3.34     -3.78   -0.45  Na2CO3:7H2O
  Na2CO3:H2O       -4.15     -3.68    0.47  Na2CO3:H2O
  Nahcolite        -0.00     -0.39   -0.39  NaHCO3
  Natron           -3.04     -3.84   -0.80  Na2CO3:10H2O
  Trona            -3.07     -4.09   -1.02  Na3H(CO3)2:2H2O

**For a gas, SI = log10(fugacity). Fugacity = pressure * phi / 1 atm.
  For ideal gases, phi = 1.

------------------
End of simulation.
------------------

-------------------------------------
Reading input data for simulation 18.
-------------------------------------

	USE SOLUTION 1
	 EQUILIBRIUM_PHASES 1
	 CO2(g)   0.299999999999999 100
	 Natron    0 0
	 Nahcolite 0 10
	 Trona     0 0
	 Na2CO3:H2O 0 0
	 Na2CO3:7H2O 0 0
	 END
-----------------------------------------
Beginning of batch-reaction calculations.
-----------------------------------------

Reaction step 1.

Using solution 1.	
Using pure phase assemblage 1.	

-------------------------------Phase assemblage--------------------------------

                                                      Moles in assemblage
Phase               SI  log IAP  log K(T, P)   Initial       Final       Delta

CO2(g)            0.30    -1.17     -1.47    1.000e+02   9.995e+01  -4.897e-02
Na2CO3:7H2O      -3.24    -3.68     -0.45    0.000e+00           0   0.000e+00
Na2CO3:H2O       -4.05    -3.58      0.47    0.000e+00           0   0.000e+00
Nahcolite        -0.00    -0.39     -0.39    1.000e+01   8.772e+00  -1.228e+00
Natron           -2.94    -3.73     -0.80    0.000e+00           0   0.000e+00
Trona            -2.97    -3.99     -1.02    0.000e+00           0   0.000e+00

-----------------------------Solution composition------------------------------

	Elements           Molality       Moles

	C                 1.277e+00   1.277e+00
	Na                1.228e+00   1.228e+00

----------------------------Description of solution----------------------------

                                       pH  =   7.337      Charge balance
                                       pe  =   4.000      Adjusted to redox equilibrium
                        Activity of water  =   0.962
                 Ionic strength (mol/kgw)  =   1.235e+00
                       Mass of water (kg)  =   1.000e+00
                 Total alkalinity (eq/kg)  =   1.228e+00
                       Total CO2 (mol/kg)  =   1.277e+00
                         Temperature (°C)  =  25.00
                  Electrical balance (eq)  =  -6.343e-10
 Percent error, 100*(Cat-|An|)/(Cat+|An|)  =  -0.00
                               Iterations  =  18
                         Gamma iterations  =   4
                      Osmotic coefficient  =   0.86037
                                  Total H  = 1.122469e+02
                                  Total O  = 5.929206e+01

----------------------------Distribution of species----------------------------

                                                    Unscaled  Unscaled
                                Unscaled       Log       Log       Log    mole V
   Species          Molality    Activity  Molality  Activity     Gamma   cm³/mol

   OH-             4.566e-07   2.104e-07    -6.341    -6.677    -0.336     (0)  
   H+              8.902e-08   4.600e-08    -7.051    -7.337    -0.287      0.00
   H2O             5.551e+01   9.619e-01     1.744    -0.017     0.000     18.07
C(4)          1.277e+00
   HCO3-           1.215e+00   6.319e-01     0.085    -0.199    -0.284     (0)  
   CO2             5.560e-02   6.792e-02    -1.255    -1.168     0.087     (0)  
   CO3-2           6.632e-03   6.443e-04    -2.178    -3.191    -1.013     (0)  
Na            1.228e+00
   Na+             1.228e+00   6.492e-01     0.089    -0.188    -0.277     (0)  

------------------------------Saturation indices-------------------------------

  Phase               SI** log IAP   log K(298 K,   1 atm)

  CO2(g)            0.30     -1.17   -1.47  CO2
  Na2CO3:7H2O      -3.24     -3.68   -0.45  Na2CO3:7H2O
  Na2CO3:H2O       -4.05     -3.58    0.47  Na2CO3:H2O
  Nahcolite        -0.00     -0.39   -0.39  NaHCO3
  Natron           -2.94     -3.73   -0.80  Na2CO3:10H2O
  Trona            -2.97     -3.99   -1.02  Na3H(CO3)2:2H2O

**For a gas, SI = log10(fugacity). Fugacity = pressure * phi / 1 atm.
  For ideal gases, phi = 1.

------------------
End of simulation.
------------------

-------------------------------------
Reading input data for simulation 19.
-------------------------------------

	USE SOLUTION 1
	 EQUILIBRIUM_PHASES 1
	 CO2(g)   0.199999999999999 100
	 Natron    0 0
	 Nahcolite 0 10
	 Trona     0 0
	 Na2CO3:H2O 0 0
	 Na2CO3:7H2O 0 0
	 END
-----------------------------------------
Beginning of batch-reaction calculations.
-----------------------------------------

Reaction step 1.

Using solution 1.	
Using pure phase assemblage 1.	

-------------------------------Phase assemblage--------------------------------

                                                      Moles in assemblage
Phase               SI  log IAP  log K(T, P)   Initial       Final       Delta

CO2(g)            0.20    -1.27     -1.47    1.000e+02   9.996e+01  -3.579e-02
Na2CO3:7H2O      -3.14    -3.58     -0.45    0.000e+00           0   0.000e+00
Na2CO3:H2O       -3.95    -3.48      0.47    0.000e+00           0   0.000e+00
Nahcolite        -0.00    -0.39     -0.39    1.000e+01   8.768e+00  -1.232e+00
Natron           -2.84    -3.63     -0.80    0.000e+00           0   0.000e+00
Trona            -2.87    -3.89     -1.02    0.000e+00           0   0.000e+00

-----------------------------Solution composition------------------------------

	Elements           Molality       Moles

	C                 1.268e+00   1.268e+00
	Na                1.232e+00   1.232e+00

----------------------------Description of solution----------------------------

                                       pH  =   7.437      Charge balance
                                       pe  =   4.000      Adjusted to redox equilibrium
                        Activity of water  =   0.962
                 Ionic strength (mol/kgw)  =   1.240e+00
                       Mass of water (kg)  =   1.000e+00
                 Total alkalinity (eq/kg)  =   1.232e+00
                       Total CO2 (mol/kg)  =   1.268e+00
                         Temperature (°C)  =  25.00
                  Electrical balance (eq)  =  -6.356e-10
 Percent error, 100*(Cat-|An|)/(Cat+|An|)  =  -0.00
                               Iterations  =  19
                         Gamma iterations  =   4
                      Osmotic coefficient  =   0.85842
                                  Total H  = 1.122507e+02
                                  Total O  = 5.927712e+01

----------------------------Distribution of species----------------------------

                                                    Unscaled  Unscaled
                                Unscaled       Log       Log       Log    mole V
   Species          Molality    Activity  Molality  Activity     Gamma   cm³/mol

   OH-             5.751e-07   2.646e-07    -6.240    -6.577    -0.337     (0)  
   H+              7.089e-08   3.659e-08    -7.149    -7.437    -0.287      0.00
   H2O             5.551e+01   9.621e-01     1.744    -0.017     0.000     18.07
C(4)          1.268e+00
   HCO3-           1.215e+00   6.311e-01     0.085    -0.200    -0.285     (0)  
   CO2             4.414e-02   5.395e-02    -1.355    -1.268     0.087     (0)  
   CO3-2           8.357e-03   8.088e-04    -2.078    -3.092    -1.014     (0)  
Na            1.232e+00
   Na+             1.232e+00   6.501e-01     0.091    -0.187    -0.278     (0)  

------------------------------Saturation indices-------------------------------

  Phase               SI** log IAP   log K(298 K,   1 atm)

  CO2(g)            0.20     -1.27   -1.47  CO2
  Na2CO3:7H2O      -3.14     -3.58   -0.45  Na2CO3:7H2O
  Na2CO3:H2O       -3.95     -3.48    0.47  Na2CO3:H2O
  Nahcolite        -0.00     -0.39   -0.39  NaHCO3
  Natron           -2.84     -3.63   -0.80  Na2CO3:10H2O
  Trona            -2.87     -3.89   -1.02  Na3H(CO3)2:2H2O

**For a gas, SI = log10(fugacity). Fugacity = pressure * phi / 1 atm.
  For ideal gases, phi = 1.

------------------
End of simulation.
------------------

-------------------------------------
Reading input data for simulation 20.
-------------------------------------

	USE SOLUTION 1
	 EQUILIBRIUM_PHASES 1
	 CO2(g)   0.0999999999999994 100
	 Natron    0 0
	 Nahcolite 0 10
	 Trona     0 0
	 Na2CO3:H2O 0 0
	 Na2CO3:7H2O 0 0
	 END
-----------------------------------------
Beginning of batch-reaction calculations.
-----------------------------------------

Reaction step 1.

Using solution 1.	
Using pure phase assemblage 1.	

-------------------------------Phase assemblage--------------------------------

                                                      Moles in assemblage
Phase               SI  log IAP  log K(T, P)   Initial       Final       Delta

CO2(g)            0.10    -1.37     -1.47    1.000e+02   9.998e+01  -2.452e-02
Na2CO3:7H2O      -3.04    -3.48     -0.45    0.000e+00           0   0.000e+00
Na2CO3:H2O       -3.85    -3.38      0.47    0.000e+00           0   0.000e+00
Nahcolite        -0.00    -0.39     -0.39    1.000e+01   8.764e+00  -1.236e+00
Natron           -2.74    -3.53     -0.80    0.000e+00           0   0.000e+00
Trona            -2.77    -3.79     -1.02    0.000e+00           0   0.000e+00

-----------------------------Solution composition------------------------------

	Elements           Molality       Moles

	C                 1.261e+00   1.261e+00
	Na                1.236e+00   1.236e+00

----------------------------Description of solution----------------------------

                                       pH  =   7.536      Charge balance
                                       pe  =   4.000      Adjusted to redox equilibrium
                        Activity of water  =   0.962
                 Ionic strength (mol/kgw)  =   1.247e+00
                       Mass of water (kg)  =   1.000e+00
                 Total alkalinity (eq/kg)  =   1.236e+00
                       Total CO2 (mol/kg)  =   1.261e+00
                         Temperature (°C)  =  25.00
                  Electrical balance (eq)  =  -6.373e-10
 Percent error, 100*(Cat-|An|)/(Cat+|An|)  =  -0.00
                               Iterations  =  19
                         Gamma iterations  =   4
                      Osmotic coefficient  =   0.85669
                                  Total H  = 1.122548e+02
                                  Total O  = 5.926709e+01

----------------------------Distribution of species----------------------------

                                                    Unscaled  Unscaled
                                Unscaled       Log       Log       Log    mole V
   Species          Molality    Activity  Molality  Activity     Gamma   cm³/mol

   OH-             7.240e-07   3.324e-07    -6.140    -6.478    -0.338     (0)  
   H+              5.650e-08   2.913e-08    -7.248    -7.536    -0.288      0.00
   H2O             5.551e+01   9.622e-01     1.744    -0.017     0.000     18.07
C(4)          1.261e+00
   HCO3-           1.215e+00   6.297e-01     0.085    -0.201    -0.285     (0)  
   CO2             3.504e-02   4.285e-02    -1.455    -1.368     0.087     (0)  
   CO3-2           1.052e-02   1.014e-03    -1.978    -2.994    -1.016     (0)  
Na            1.236e+00
   Na+             1.236e+00   6.514e-01     0.092    -0.186    -0.278     (0)  

------------------------------Saturation indices-------------------------------

  Phase               SI** log IAP   log K(298 K,   1 atm)

[...]
  Nahcolite        -0.79     -1.18   -0.39  NaHCO3
  Natron           -0.00     -0.80   -0.80  Na2CO3:10H2O
  Trona            -0.57     -1.59   -1.02  Na3H(CO3)2:2H2O

**For a gas, SI = log10(fugacity). Fugacity = pressure * phi / 1 atm.
  For ideal gases, phi = 1.

------------------
End of simulation.
------------------

-------------------------------------
Reading input data for simulation 67.
-------------------------------------

	USE SOLUTION 1
	 EQUILIBRIUM_PHASES 1
	 CO2(g)   -4.6 100
	 Natron    0 0
	 Nahcolite 0 10
	 Trona     0 0
	 Na2CO3:H2O 0 0
	 Na2CO3:7H2O 0 0
	 END
-----------------------------------------
Beginning of batch-reaction calculations.
-----------------------------------------

Reaction step 1.

Using solution 1.	
Using pure phase assemblage 1.	

-------------------------------Phase assemblage--------------------------------

                                                      Moles in assemblage
Phase               SI  log IAP  log K(T, P)   Initial       Final       Delta

CO2(g)           -4.60    -6.07     -1.47    1.000e+02   1.050e+02   4.984e+00
Na2CO3:7H2O      -0.20    -0.65     -0.45    0.000e+00           0   0.000e+00
Na2CO3:H2O       -0.83    -0.36      0.47    0.000e+00           0   0.000e+00
Nahcolite        -0.84    -1.23     -0.39    1.000e+01           0  -1.000e+01
Natron            0.00    -0.80     -0.80    0.000e+00   3.923e+00   3.923e+00
Trona            -0.62    -1.64     -1.02    0.000e+00           0   0.000e+00

-----------------------------Solution composition------------------------------

	Elements           Molality       Moles

	C                 2.852e+00   1.093e+00
	Na                5.623e+00   2.154e+00

----------------------------Description of solution----------------------------

                                       pH  =  10.754      Charge balance
                                       pe  =   4.000      Adjusted to redox equilibrium
                        Activity of water  =   0.895
                 Ionic strength (mol/kgw)  =   8.390e+00
                       Mass of water (kg)  =   3.830e-01
                 Total alkalinity (eq/kg)  =   5.623e+00
                       Total CO2 (mol/kg)  =   2.852e+00
                         Temperature (°C)  =  25.00
                  Electrical balance (eq)  =  -6.294e-10
 Percent error, 100*(Cat-|An|)/(Cat+|An|)  =  -0.00
                               Iterations  =  41
                         Gamma iterations  =   6
                      Osmotic coefficient  =   0.72416
                                  Total H  = 4.255707e+01
                                  Total O  = 2.454061e+01

----------------------------Distribution of species----------------------------

                                                    Unscaled  Unscaled
                                Unscaled       Log       Log       Log    mole V
   Species          Molality    Activity  Molality  Activity     Gamma   cm³/mol

   OH-             3.586e-03   5.115e-04    -2.445    -3.291    -0.846     (0)  
   H+              4.564e-11   1.761e-11   -10.341   -10.754    -0.414      0.00
   H2O             5.551e+01   8.953e-01     1.744    -0.048     0.000     18.07
C(4)          2.852e+00
   CO3-2           2.767e+00   5.149e-02     0.442    -1.288    -1.730     (0)  
   HCO3-           8.532e-02   1.934e-02    -1.069    -1.714    -0.645     (0)  
   CO2             3.420e-07   8.551e-07    -6.466    -6.068     0.398     (0)  
Na            5.623e+00
   Na+             5.623e+00   3.068e+00     0.750     0.487    -0.263     (0)  

------------------------------Saturation indices-------------------------------

  Phase               SI** log IAP   log K(298 K,   1 atm)

  CO2(g)           -4.60     -6.07   -1.47  CO2
  Na2CO3:7H2O      -0.20     -0.65   -0.45  Na2CO3:7H2O
  Na2CO3:H2O       -0.83     -0.36    0.47  Na2CO3:H2O
  Nahcolite        -0.84     -1.23   -0.39  NaHCO3
  Natron            0.00     -0.80   -0.80  Na2CO3:10H2O
  Trona            -0.62     -1.64   -1.02  Na3H(CO3)2:2H2O

**For a gas, SI = log10(fugacity). Fugacity = pressure * phi / 1 atm.
  For ideal gases, phi = 1.

------------------
End of simulation.
------------------

-------------------------------------
Reading input data for simulation 68.
-------------------------------------

	USE SOLUTION 1
	 EQUILIBRIUM_PHASES 1
	 CO2(g)   -4.7 100
	 Natron    0 0
	 Nahcolite 0 10
	 Trona     0 0
	 Na2CO3:H2O 0 0
	 Na2CO3:7H2O 0 0
	 END
-----------------------------------------
Beginning of batch-reaction calculations.
-----------------------------------------

Reaction step 1.

Using solution 1.	
Using pure phase assemblage 1.	

-------------------------------Phase assemblage--------------------------------

                                                      Moles in assemblage
Phase               SI  log IAP  log K(T, P)   Initial       Final       Delta

CO2(g)           -4.70    -6.17     -1.47    1.000e+02   1.050e+02   4.986e+00
Na2CO3:7H2O      -0.20    -0.65     -0.45    0.000e+00           0   0.000e+00
Na2CO3:H2O       -0.83    -0.36      0.47    0.000e+00           0   0.000e+00
Nahcolite        -0.89    -1.28     -0.39    1.000e+01           0  -1.000e+01
Natron            0.00    -0.80     -0.80    0.000e+00   3.927e+00   3.927e+00
Trona            -0.67    -1.69     -1.02    0.000e+00           0   0.000e+00

-----------------------------Solution composition------------------------------

	Elements           Molality       Moles

	C                 2.843e+00   1.087e+00
	Na                5.614e+00   2.147e+00

----------------------------Description of solution----------------------------

                                       pH  =  10.804      Charge balance
                                       pe  =   4.000      Adjusted to redox equilibrium
                        Activity of water  =   0.896
                 Ionic strength (mol/kgw)  =   8.380e+00
                       Mass of water (kg)  =   3.824e-01
                 Total alkalinity (eq/kg)  =   5.614e+00
                       Total CO2 (mol/kg)  =   2.843e+00
                         Temperature (°C)  =  25.00
                  Electrical balance (eq)  =  -6.294e-10
 Percent error, 100*(Cat-|An|)/(Cat+|An|)  =  -0.00
                               Iterations  =  49
                         Gamma iterations  =   6
                      Osmotic coefficient  =   0.72366
                                  Total H  = 4.248581e+01
                                  Total O  = 2.449055e+01

----------------------------Distribution of species----------------------------

                                                    Unscaled  Unscaled
                                Unscaled       Log       Log       Log    mole V
   Species          Molality    Activity  Molality  Activity     Gamma   cm³/mol

   OH-             4.019e-03   5.741e-04    -2.396    -3.241    -0.845     (0)  
   H+              4.070e-11   1.570e-11   -10.390   -10.804    -0.414      0.00
   H2O             5.551e+01   8.956e-01     1.744    -0.048     0.000     18.07
C(4)          2.843e+00
   CO3-2           2.767e+00   5.152e-02     0.442    -1.288    -1.730     (0)  
   HCO3-           7.611e-02   1.724e-02    -1.119    -1.763    -0.645     (0)  
   CO2             2.721e-07   6.792e-07    -6.565    -6.168     0.397     (0)  
Na            5.614e+00
   Na+             5.614e+00   3.062e+00     0.749     0.486    -0.263     (0)  

------------------------------Saturation indices-------------------------------

  Phase               SI** log IAP   log K(298 K,   1 atm)

  CO2(g)           -4.70     -6.17   -1.47  CO2
  Na2CO3:7H2O      -0.20     -0.65   -0.45  Na2CO3:7H2O
  Na2CO3:H2O       -0.83     -0.36    0.47  Na2CO3:H2O
  Nahcolite        -0.89     -1.28   -0.39  NaHCO3
  Natron            0.00     -0.80   -0.80  Na2CO3:10H2O
  Trona            -0.67     -1.69   -1.02  Na3H(CO3)2:2H2O

**For a gas, SI = log10(fugacity). Fugacity = pressure * phi / 1 atm.
  For ideal gases, phi = 1.

------------------
End of simulation.
------------------

-------------------------------------
Reading input data for simulation 69.
-------------------------------------

	USE SOLUTION 1
	 EQUILIBRIUM_PHASES 1
	 CO2(g)   -4.8 100
	 Natron    0 0
	 Nahcolite 0 10
	 Trona     0 0
	 Na2CO3:H2O 0 0
	 Na2CO3:7H2O 0 0
	 END
-----------------------------------------
Beginning of batch-reaction calculations.
-----------------------------------------

Reaction step 1.

Using solution 1.	
Using pure phase assemblage 1.	

-------------------------------Phase assemblage--------------------------------

                                                      Moles in assemblage
Phase               SI  log IAP  log K(T, P)   Initial       Final       Delta

CO2(g)           -4.80    -6.27     -1.47    1.000e+02   1.050e+02   4.988e+00
Na2CO3:7H2O      -0.20    -0.65     -0.45    0.000e+00           0   0.000e+00
Na2CO3:H2O       -0.83    -0.37      0.47    0.000e+00           0   0.000e+00
Nahcolite        -0.94    -1.33     -0.39    1.000e+01           0  -1.000e+01
Natron           -0.00    -0.80     -0.80    0.000e+00   3.930e+00   3.930e+00
Trona            -0.72    -1.74     -1.02    0.000e+00           0   0.000e+00

-----------------------------Solution composition------------------------------

	Elements           Molality       Moles

	C                 2.834e+00   1.082e+00
	Na                5.605e+00   2.141e+00

----------------------------Description of solution----------------------------

                                       pH  =  10.854      Charge balance
                                       pe  =   4.000      Adjusted to redox equilibrium
                        Activity of water  =   0.896
                 Ionic strength (mol/kgw)  =   8.372e+00
                       Mass of water (kg)  =   3.819e-01
                 Total alkalinity (eq/kg)  =   5.605e+00
                       Total CO2 (mol/kg)  =   2.834e+00
                         Temperature (°C)  =  25.00
                  Electrical balance (eq)  =  -6.294e-10
 Percent error, 100*(Cat-|An|)/(Cat+|An|)  =  -0.00
                               Iterations  =  41
                         Gamma iterations  =   6
                      Osmotic coefficient  =   0.72321
                                  Total H  = 4.242373e+01
                                  Total O  = 2.444684e+01

----------------------------Distribution of species----------------------------

                                                    Unscaled  Unscaled
                                Unscaled       Log       Log       Log    mole V
   Species          Molality    Activity  Molality  Activity     Gamma   cm³/mol

   OH-             4.506e-03   6.444e-04    -2.346    -3.191    -0.845     (0)  
   H+              3.628e-11   1.399e-11   -10.440   -10.854    -0.414      0.00
   H2O             5.551e+01   8.958e-01     1.744    -0.048     0.000     18.07
C(4)          2.834e+00
   CO3-2           2.766e+00   5.154e-02     0.442    -1.288    -1.730     (0)  
   HCO3-           6.789e-02   1.537e-02    -1.168    -1.813    -0.645     (0)  
   CO2             2.164e-07   5.395e-07    -6.665    -6.268     0.397     (0)  
Na            5.605e+00
   Na+             5.605e+00   3.057e+00     0.749     0.485    -0.263     (0)  

------------------------------Saturation indices-------------------------------

  Phase               SI** log IAP   log K(298 K,   1 atm)

  CO2(g)           -4.80     -6.27   -1.47  CO2
  Na2CO3:7H2O      -0.20     -0.65   -0.45  Na2CO3:7H2O
  Na2CO3:H2O       -0.83     -0.37    0.47  Na2CO3:H2O
  Nahcolite        -0.94     -1.33   -0.39  NaHCO3
  Natron           -0.00     -0.80   -0.80  Na2CO3:10H2O
  Trona            -0.72     -1.74   -1.02  Na3H(CO3)2:2H2O

**For a gas, SI = log10(fugacity). Fugacity = pressure * phi / 1 atm.
  For ideal gases, phi = 1.

------------------
End of simulation.
------------------

-------------------------------------
Reading input data for simulation 70.
-------------------------------------

	USE SOLUTION 1
	 EQUILIBRIUM_PHASES 1
	 CO2(g)   -4.9 100
	 Natron    0 0
	 Nahcolite 0 10
	 Trona     0 0
	 Na2CO3:H2O 0 0
	 Na2CO3:7H2O 0 0
	 END
-----------------------------------------
Beginning of batch-reaction calculations.
-----------------------------------------

Reaction step 1.

Using solution 1.	
Using pure phase assemblage 1.	

-------------------------------Phase assemblage--------------------------------

                                                      Moles in assemblage
Phase               SI  log IAP  log K(T, P)   Initial       Final       Delta

CO2(g)           -4.90    -6.37     -1.47    1.000e+02   1.050e+02   4.989e+00
Na2CO3:7H2O      -0.20    -0.65     -0.45    0.000e+00           0   0.000e+00
Na2CO3:H2O       -0.83    -0.37      0.47    0.000e+00           0   0.000e+00
Nahcolite        -0.99    -1.38     -0.39    1.000e+01           0  -1.000e+01
Natron            0.00    -0.80     -0.80    0.000e+00   3.932e+00   3.932e+00
Trona            -0.77    -1.79     -1.02    0.000e+00           0   0.000e+00

-----------------------------Solution composition------------------------------

	Elements           Molality       Moles

	C                 2.827e+00   1.078e+00
	Na                5.598e+00   2.135e+00

----------------------------Description of solution----------------------------

                                       pH  =  10.904      Charge balance
                                       pe  =   4.000      Adjusted to redox equilibrium
                        Activity of water  =   0.896
                 Ionic strength (mol/kgw)  =   8.364e+00
                       Mass of water (kg)  =   3.814e-01
                 Total alkalinity (eq/kg)  =   5.598e+00
                       Total CO2 (mol/kg)  =   2.827e+00
                         Temperature (°C)  =  25.00
                  Electrical balance (eq)  =  -6.294e-10
 Percent error, 100*(Cat-|An|)/(Cat+|An|)  =  -0.00
                               Iterations  =  41
                         Gamma iterations  =   6
                      Osmotic coefficient  =   0.72281
                                  Total H  = 4.236995e+01
                                  Total O  = 2.440885e+01

----------------------------Distribution of species----------------------------

                                                    Unscaled  Unscaled
                                Unscaled       Log       Log       Log    mole V
   Species          Molality    Activity  Molality  Activity     Gamma   cm³/mol

   OH-             5.052e-03   7.233e-04    -2.297    -3.141    -0.844     (0)  
   H+              3.235e-11   1.247e-11   -10.490   -10.904    -0.414      0.00
   H2O             5.551e+01   8.960e-01     1.744    -0.048     0.000     18.07
C(4)          2.827e+00
   CO3-2           2.766e+00   5.157e-02     0.442    -1.288    -1.730     (0)  
   HCO3-           6.056e-02   1.371e-02    -1.218    -1.863    -0.645     (0)  
   CO2             1.721e-07   4.285e-07    -6.764    -6.368     0.396     (0)  
Na            5.598e+00
   Na+             5.598e+00   3.052e+00     0.748     0.485    -0.263     (0)  

------------------------------Saturation indices-------------------------------

  Phase               SI** log IAP   log K(298 K,   1 atm)

  CO2(g)           -4.90     -6.37   -1.47  CO2
  Na2CO3:7H2O      -0.20     -0.65   -0.45  Na2CO3:7H2O
  Na2CO3:H2O       -0.83     -0.37    0.47  Na2CO3:H2O
  Nahcolite        -0.99     -1.38   -0.39  NaHCO3
  Natron            0.00     -0.80   -0.80  Na2CO3:10H2O
  Trona            -0.77     -1.79   -1.02  Na3H(CO3)2:2H2O

**For a gas, SI = log10(fugacity). Fugacity = pressure * phi / 1 atm.
  For ideal gases, phi = 1.

------------------
End of simulation.
------------------

-------------------------------------
Reading input data for simulation 71.
-------------------------------------

	USE SOLUTION 1
	 EQUILIBRIUM_PHASES 1
	 CO2(g)   -5 100
	 Natron    0 0
	 Nahcolite 0 10
	 Trona     0 0
	 Na2CO3:H2O 0 0
	 Na2CO3:7H2O 0 0
	 END
-----------------------------------------
Beginning of batch-reaction calculations.
-----------------------------------------

Reaction step 1.

Using solution 1.	
Using pure phase assemblage 1.	

-------------------------------Phase assemblage--------------------------------

                                                      Moles in assemblage
Phase               SI  log IAP  log K(T, P)   Initial       Final       Delta

CO2(g)           -5.00    -6.47     -1.47    1.000e+02   1.050e+02   4.991e+00
Na2CO3:7H2O      -0.20    -0.65     -0.45    0.000e+00           0   0.000e+00
Na2CO3:H2O       -0.83    -0.37      0.47    0.000e+00           0   0.000e+00
Nahcolite        -1.04    -1.43     -0.39    1.000e+01           0  -1.000e+01
Natron           -0.00    -0.80     -0.80    0.000e+00   3.935e+00   3.935e+00
Trona            -0.83    -1.84     -1.02    0.000e+00           0   0.000e+00

-----------------------------Solution composition------------------------------

	Elements           Molality       Moles

	C                 2.820e+00   1.074e+00
	Na                5.592e+00   2.131e+00

----------------------------Description of solution----------------------------

                                       pH  =  10.954      Charge balance
                                       pe  =   4.000      Adjusted to redox equilibrium
                        Activity of water  =   0.896
                 Ionic strength (mol/kgw)  =   8.357e+00
                       Mass of water (kg)  =   3.810e-01
                 Total alkalinity (eq/kg)  =   5.592e+00
                       Total CO2 (mol/kg)  =   2.820e+00
                         Temperature (°C)  =  25.00
                  Electrical balance (eq)  =  -6.294e-10
 Percent error, 100*(Cat-|An|)/(Cat+|An|)  =  -0.00
                               Iterations  =  56
                         Gamma iterations  =   6
                      Osmotic coefficient  =   0.72245
                                  Total H  = 4.232367e+01
                                  Total O  = 2.437602e+01

----------------------------Distribution of species----------------------------

                                                    Unscaled  Unscaled
                                Unscaled       Log       Log       Log    mole V
   Species          Molality    Activity  Molality  Activity     Gamma   cm³/mol

   OH-             5.665e-03   8.119e-04    -2.247    -3.091    -0.844     (0)  
   H+              2.884e-11   1.111e-11   -10.540   -10.954    -0.414      0.00
   H2O             5.551e+01   8.962e-01     1.744    -0.048     0.000     18.07
C(4)          2.820e+00
   CO3-2           2.766e+00   5.159e-02     0.442    -1.287    -1.729     (0)  
   HCO3-           5.401e-02   1.222e-02    -1.268    -1.913    -0.645     (0)  
   CO2             1.369e-07   3.404e-07    -6.864    -6.468     0.396     (0)  
Na            5.592e+00
   Na+             5.592e+00   3.048e+00     0.748     0.484    -0.263     (0)  

------------------------------Saturation indices-------------------------------

  Phase               SI** log IAP   log K(298 K,   1 atm)

  CO2(g)           -5.00     -6.47   -1.47  CO2
  Na2CO3:7H2O      -0.20     -0.65   -0.45  Na2CO3:7H2O
  Na2CO3:H2O       -0.83     -0.37    0.47  Na2CO3:H2O
  Nahcolite        -1.04     -1.43   -0.39  NaHCO3
  Natron           -0.00     -0.80   -0.80  Na2CO3:10H2O
  Trona            -0.83     -1.84   -1.02  Na3H(CO3)2:2H2O

**For a gas, SI = log10(fugacity). Fugacity = pressure * phi / 1 atm.
  For ideal gases, phi = 1.

------------------
End of simulation.
------------------

-------------------------------------
Reading input data for simulation 72.
-------------------------------------

----------------------------------
End of Run after 0.182763 Seconds.
----------------------------------

