   Input file: ../examples/StreamModel_Step1.pqi
  Output file: ../examples/StreamModel_Step1.pqi.out
Database file: ../database/phreeqc.dat

------------------
Reading data base.
------------------

	SOLUTION_MASTER_SPECIES
	SOLUTION_SPECIES
	PHASES
	EXCHANGE_MASTER_SPECIES
	EXCHANGE_SPECIES
	SURFACE_MASTER_SPECIES
	SURFACE_SPECIES
	RATES
	END
------------------------------------
Reading input data for simulation 1.
------------------------------------

	DATABASE ../database/phreeqc.dat
	SOLUTION 1
	    temp      25
	    pH        7
	    pe        4
	    redox     pe
	    units     mmol/kgw
	    density   1
	    water    1 # kg
	SELECTED_OUTPUT 1
	    file                 ../examples/StreamModel_Step1.sel
	    reset                false
	    temperature          true
	    ph          true
	    saturation_indices   CO2(g)
	USE SOLUTION 1
	 EQUILIBRIUM_PHASES 1
	 CO2(g)    -4 100
	 Calcite 0 10 dissolve_only
	 REACTION_TEMPERATURE 1
	 50
	 END
-------------------------------------------
Beginning of initial solution calculations.
-------------------------------------------

Initial solution 1.	

-----------------------------Solution composition------------------------------

	Elements           Molality       Moles

	Pure water     

----------------------------Description of solution----------------------------

                                       pH  =   7.000    
                                       pe  =   4.000    
      Specific Conductance (µS/cm,  25°C)  = 0
                          Density (g/cm³)  =   0.99704
                               Volume (L)  =   1.00297
                        Activity of water  =   1.000
                 Ionic strength (mol/kgw)  =   1.007e-07
                       Mass of water (kg)  =   1.000e+00
                 Total alkalinity (eq/kg)  =   1.217e-09
                         Temperature (°C)  =  25.00
                  Electrical balance (eq)  =  -1.217e-09
 Percent error, 100*(Cat-|An|)/(Cat+|An|)  =  -0.60
                               Iterations  =   0
                                  Total H  = 1.110124e+02
                                  Total O  = 5.550622e+01

----------------------------Distribution of species----------------------------

                                               Log       Log       Log    mole V
   Species          Molality    Activity  Molality  Activity     Gamma   cm³/mol

   OH-             1.013e-07   1.012e-07    -6.995    -6.995    -0.000     -4.14
   H+              1.001e-07   1.000e-07    -7.000    -7.000    -0.000      0.00
   H2O             5.551e+01   1.000e+00     1.744     0.000     0.000     18.07
H(0)          1.416e-25
   H2              7.079e-26   7.079e-26   -25.150   -25.150     0.000     28.61
O(0)          0.000e+00
   O2              0.000e+00   0.000e+00   -42.080   -42.080     0.000     30.40

------------------------------Saturation indices-------------------------------

  Phase               SI** log IAP   log K(298 K,   1 atm)

  H2(g)           -22.05    -25.15   -3.10  H2
  H2O(g)           -1.50      0.00    1.50  H2O
  O2(g)           -39.19    -42.08   -2.89  O2

**For a gas, SI = log10(fugacity). Fugacity = pressure * phi / 1 atm.
  For ideal gases, phi = 1.

-----------------------------------------
Beginning of batch-reaction calculations.
-----------------------------------------

Reaction step 1.

Using solution 1.	
Using pure phase assemblage 1.	
Using temperature 1.	

-------------------------------Phase assemblage--------------------------------

                                                      Moles in assemblage
Phase               SI  log IAP  log K(T, P)   Initial       Final       Delta

CO2(g)           -4.00    -5.71     -1.71    1.000e+02   1.000e+02  -1.985e-04
Calcite           0.00    -8.66     -8.66    1.000e+01   1.000e+01  -2.383e-04

-----------------------------Solution composition------------------------------

	Elements           Molality       Moles

	C                 4.369e-04   4.369e-04
	Ca                2.383e-04   2.383e-04

----------------------------Description of solution----------------------------

                                       pH  =   8.600      Charge balance
                                       pe  =  -2.928      Adjusted to redox equilibrium
      Specific Conductance (µS/cm,  50°C)  = 78
                          Density (g/cm³)  =   0.98806
                               Volume (L)  =   1.01212
                        Activity of water  =   1.000
                 Ionic strength (mol/kgw)  =   7.032e-04
                       Mass of water (kg)  =   1.000e+00
                 Total alkalinity (eq/kg)  =   4.767e-04
                       Total CO2 (mol/kg)  =   4.369e-04
                         Temperature (°C)  =  50.00
                  Electrical balance (eq)  =  -1.217e-09
 Percent error, 100*(Cat-|An|)/(Cat+|An|)  =  -0.00
                               Iterations  =  15
                                  Total H  = 1.110124e+02
                                  Total O  = 5.550733e+01

----------------------------Distribution of species----------------------------

                                               Log       Log       Log    mole V
   Species          Molality    Activity  Molality  Activity     Gamma   cm³/mol

   OH-             2.252e-05   2.181e-05    -4.648    -4.661    -0.014     -3.80
   H+              2.586e-09   2.509e-09    -8.587    -8.600    -0.013      0.00
   H2O             5.551e+01   1.000e+00     1.744    -0.000     0.000     18.23
C(-4)         1.148e-30
   CH4             1.148e-30   1.148e-30   -29.940   -29.940     0.000     37.33
C(4)          4.369e-04
   HCO3-           4.144e-04   4.016e-04    -3.383    -3.396    -0.014     25.70
   CO3-2           1.213e-05   1.071e-05    -4.916    -4.970    -0.054     -5.32
   CaCO3           7.086e-06   7.087e-06    -5.150    -5.150     0.000    -14.53
   CO2             1.946e-06   1.946e-06    -5.711    -5.711     0.000     35.66
   CaHCO3+         1.355e-06   1.314e-06    -5.868    -5.881    -0.013     10.29
   (CO2)2          1.422e-13   1.422e-13   -12.847   -12.847     0.000     71.32
Ca            2.383e-04
   Ca+2            2.299e-04   2.029e-04    -3.638    -3.693    -0.054    -18.23
   CaCO3           7.086e-06   7.087e-06    -5.150    -5.150     0.000    -14.53
   CaHCO3+         1.355e-06   1.314e-06    -5.868    -5.881    -0.013     10.29
   CaOH+           1.385e-08   1.342e-08    -7.859    -7.872    -0.014     (0)  
H(0)          5.088e-15
   H2              2.544e-15   2.544e-15   -14.595   -14.594     0.000     28.59
O(0)          0.000e+00
   O2              0.000e+00   0.000e+00   -55.747   -55.747     0.000     31.92

------------------------------Saturation indices-------------------------------

  Phase               SI** log IAP   log K(323 K,   1 atm)

  Aragonite        -0.13     -8.66   -8.54  CaCO3
  Calcite           0.00     -8.66   -8.66  CaCO3
  CH4(g)          -26.98    -29.94   -2.96  CH4
  CO2(g)           -4.00     -5.71   -1.71  CO2	 Pressure   0.0 atm, phi 1.000
  H2(g)           -11.46    -14.59   -3.14  H2
  H2O(g)           -0.92     -0.00    0.92  H2O
  O2(g)           -52.72    -55.75   -3.03  O2

**For a gas, SI = log10(fugacity). Fugacity = pressure * phi / 1 atm.
  For ideal gases, phi = 1.

------------------
End of simulation.
------------------

------------------------------------
Reading input data for simulation 2.
------------------------------------

	USE SOLUTION 1
	 EQUILIBRIUM_PHASES 1
	 CO2(g)    -3 100
	 Calcite 0 10 dissolve_only
	 REACTION_TEMPERATURE 1
	 50
	 END
-----------------------------------------
Beginning of batch-reaction calculations.
-----------------------------------------

Reaction step 1.

Using solution 1.	
Using pure phase assemblage 1.	
Using temperature 1.	

-------------------------------Phase assemblage--------------------------------

                                                      Moles in assemblage
Phase               SI  log IAP  log K(T, P)   Initial       Final       Delta

CO2(g)           -3.00    -4.71     -1.71    1.000e+02   1.000e+02  -4.919e-04
Calcite           0.00    -8.66     -8.66    1.000e+01   1.000e+01  -4.911e-04

-----------------------------Solution composition------------------------------

	Elements           Molality       Moles

	C                 9.831e-04   9.831e-04
	Ca                4.911e-04   4.911e-04

----------------------------Description of solution----------------------------

                                       pH  =   7.953      Charge balance
                                       pe  =  -2.280      Adjusted to redox equilibrium
      Specific Conductance (µS/cm,  50°C)  = 150
                          Density (g/cm³)  =   0.98809
                               Volume (L)  =   1.01212
                        Activity of water  =   1.000
                 Ionic strength (mol/kgw)  =   1.446e-03
                       Mass of water (kg)  =   1.000e+00
                 Total alkalinity (eq/kg)  =   9.823e-04
                       Total CO2 (mol/kg)  =   9.831e-04
                         Temperature (°C)  =  50.00
                  Electrical balance (eq)  =  -1.217e-09
 Percent error, 100*(Cat-|An|)/(Cat+|An|)  =  -0.00
                               Iterations  =  16
                                  Total H  = 1.110124e+02
                                  Total O  = 5.550867e+01

----------------------------Distribution of species----------------------------

                                               Log       Log       Log    mole V
   Species          Molality    Activity  Molality  Activity     Gamma   cm³/mol

   OH-             5.132e-06   4.907e-06    -5.290    -5.309    -0.019     -3.79
   H+              1.163e-08   1.115e-08    -7.934    -7.953    -0.018      0.00
   H2O             5.551e+01   1.000e+00     1.744    -0.000     0.000     18.23
C(-4)         1.148e-29
   CH4             1.148e-29   1.148e-29   -28.940   -28.940     0.000     37.33
C(4)          9.831e-04
   HCO3-           9.440e-04   9.035e-04    -3.025    -3.044    -0.019     25.71
   CO2             1.945e-05   1.946e-05    -4.711    -4.711     0.000     35.66
   CaCO3           7.085e-06   7.087e-06    -5.150    -5.150     0.000    -14.53
   CO3-2           6.460e-06   5.421e-06    -5.190    -5.266    -0.076     -5.27
   CaHCO3+         6.100e-06   5.841e-06    -5.215    -5.234    -0.019     10.30
   (CO2)2          1.421e-11   1.422e-11   -10.847   -10.847     0.000     71.32
Ca            4.911e-04
   Ca+2            4.780e-04   4.010e-04    -3.321    -3.397    -0.076    -18.18
   CaCO3           7.085e-06   7.087e-06    -5.150    -5.150     0.000    -14.53
   CaHCO3+         6.100e-06   5.841e-06    -5.215    -5.234    -0.019     10.30
   CaOH+           6.238e-09   5.966e-09    -8.205    -8.224    -0.019     (0)  
H(0)          5.087e-15
   H2              2.543e-15   2.544e-15   -14.595   -14.594     0.000     28.59
O(0)          0.000e+00
   O2              0.000e+00   0.000e+00   -55.747   -55.747     0.000     31.92

------------------------------Saturation indices-------------------------------

  Phase               SI** log IAP   log K(323 K,   1 atm)

  Aragonite        -0.13     -8.66   -8.54  CaCO3
  Calcite           0.00     -8.66   -8.66  CaCO3
  CH4(g)          -25.98    -28.94   -2.96  CH4
  CO2(g)           -3.00     -4.71   -1.71  CO2	 Pressure   0.0 atm, phi 1.000
  H2(g)           -11.46    -14.59   -3.14  H2
  H2O(g)           -0.92     -0.00    0.92  H2O
  O2(g)           -52.72    -55.75   -3.03  O2

**For a gas, SI = log10(fugacity). Fugacity = pressure * phi / 1 atm.
  For ideal gases, phi = 1.

------------------
End of simulation.
------------------

------------------------------------
Reading input data for simulation 3.
------------------------------------

	USE SOLUTION 1
	 EQUILIBRIUM_PHASES 1
	 CO2(g)    -2 100
	 Calcite 0 10 dissolve_only
	 REACTION_TEMPERATURE 1
	 50
	 END
-----------------------------------------
Beginning of batch-reaction calculations.
-----------------------------------------

Reaction step 1.

Using solution 1.	
Using pure phase assemblage 1.	
Using temperature 1.	

-------------------------------Phase assemblage--------------------------------

                                                      Moles in assemblage
Phase               SI  log IAP  log K(T, P)   Initial       Final       Delta

CO2(g)           -2.00    -3.71     -1.71    1.000e+02   1.000e+02  -1.273e-03
Calcite           0.00    -8.66     -8.66    1.000e+01   9.999e+00  -1.090e-03

-----------------------------Solution composition------------------------------

	Elements           Molality       Moles

	C                 2.363e-03   2.363e-03
	Ca                1.090e-03   1.090e-03

----------------------------Description of solution----------------------------

                                       pH  =   7.298      Charge balance
                                       pe  =  -1.625      Adjusted to redox equilibrium
      Specific Conductance (µS/cm,  50°C)  = 322
                          Density (g/cm³)  =   0.98817
                               Volume (L)  =   1.01214
                        Activity of water  =   1.000
                 Ionic strength (mol/kgw)  =   3.196e-03
                       Mass of water (kg)  =   1.000e+00
                 Total alkalinity (eq/kg)  =   2.180e-03
                       Total CO2 (mol/kg)  =   2.363e-03
                         Temperature (°C)  =  50.00
                  Electrical balance (eq)  =  -1.217e-09
 Percent error, 100*(Cat-|An|)/(Cat+|An|)  =  -0.00
                               Iterations  =  16
                                  Total H  = 1.110124e+02
                                  Total O  = 5.551203e+01

----------------------------Distribution of species----------------------------

                                               Log       Log       Log    mole V
   Species          Molality    Activity  Molality  Activity     Gamma   cm³/mol

   OH-             1.159e-06   1.086e-06    -5.936    -5.964    -0.028     -3.77
   H+              5.349e-08   5.040e-08    -7.272    -7.298    -0.026      0.00
   H2O             5.551e+01   9.999e-01     1.744    -0.000     0.000     18.23
C(-4)         1.150e-28
   CH4             1.150e-28   1.151e-28   -27.939   -27.939     0.000     37.33
C(4)          2.363e-03
   HCO3-           2.130e-03   1.999e-03    -2.672    -2.699    -0.027     25.74
   CO2             1.945e-04   1.946e-04    -3.711    -3.711     0.000     35.66
   CaHCO3+         2.809e-05   2.639e-05    -4.551    -4.579    -0.027     10.32
   CaCO3           7.082e-06   7.087e-06    -5.150    -5.150     0.000    -14.53
   CO3-2           3.418e-06   2.655e-06    -5.466    -5.576    -0.110     -5.18
   (CO2)2          1.421e-09   1.422e-09    -8.847    -8.847     0.000     71.32
Ca            1.090e-03
   Ca+2            1.055e-03   8.188e-04    -2.977    -3.087    -0.110    -18.11
   CaHCO3+         2.809e-05   2.639e-05    -4.551    -4.579    -0.027     10.32
   CaCO3           7.082e-06   7.087e-06    -5.150    -5.150     0.000    -14.53
   CaOH+           2.876e-09   2.696e-09    -8.541    -8.569    -0.028     (0)  
H(0)          5.088e-15
   H2              2.544e-15   2.546e-15   -14.594   -14.594     0.000     28.59
O(0)          0.000e+00
   O2              0.000e+00   0.000e+00   -55.748   -55.748     0.000     31.92

------------------------------Saturation indices-------------------------------

  Phase               SI** log IAP   log K(323 K,   1 atm)

  Aragonite        -0.13     -8.66   -8.54  CaCO3
  Calcite           0.00     -8.66   -8.66  CaCO3
  CH4(g)          -24.98    -27.94   -2.96  CH4
  CO2(g)           -2.00     -3.71   -1.71  CO2	 Pressure   0.0 atm, phi 1.000
  H2(g)           -11.46    -14.59   -3.14  H2
  H2O(g)           -0.92     -0.00    0.92  H2O
  O2(g)           -52.72    -55.75   -3.03  O2

**For a gas, SI = log10(fugacity). Fugacity = pressure * phi / 1 atm.
  For ideal gases, phi = 1.

------------------
End of simulation.
------------------

------------------------------------
Reading input data for simulation 4.
------------------------------------

	USE SOLUTION 1
	 EQUILIBRIUM_PHASES 1
	 CO2(g)    -1 100
	 Calcite 0 10 dissolve_only
	 REACTION_TEMPERATURE 1
	 50
	 END
-----------------------------------------
Beginning of batch-reaction calculations.
-----------------------------------------

Reaction step 1.

Using solution 1.	
Using pure phase assemblage 1.	
Using temperature 1.	

-------------------------------Phase assemblage--------------------------------

                                                      Moles in assemblage
Phase               SI  log IAP  log K(T, P)   Initial       Final       Delta

CO2(g)           -1.00    -2.71     -1.71    1.000e+02   1.000e+02  -4.445e-03
Calcite           0.00    -8.66     -8.66    1.000e+01   9.997e+00  -2.512e-03

-----------------------------Solution composition------------------------------

	Elements           Molality       Moles

	C                 6.958e-03   6.958e-03
	Ca                2.512e-03   2.512e-03

----------------------------Description of solution----------------------------

                                       pH  =   6.646      Charge balance
                                       pe  =  -0.974      Adjusted to redox equilibrium
      Specific Conductance (µS/cm,  50°C)  = 707
                          Density (g/cm³)  =   0.98837
                               Volume (L)  =   1.01222
                        Activity of water  =   1.000
                 Ionic strength (mol/kgw)  =   7.259e-03
                       Mass of water (kg)  =   1.000e+00
                 Total alkalinity (eq/kg)  =   5.025e-03
                       Total CO2 (mol/kg)  =   6.958e-03
                         Temperature (°C)  =  50.00
                  Electrical balance (eq)  =  -1.216e-09
 Percent error, 100*(Cat-|An|)/(Cat+|An|)  =  -0.00
                               Iterations  =  17
                                  Total H  = 1.110124e+02
                                  Total O  = 5.552264e+01

----------------------------Distribution of species----------------------------

                                               Log       Log       Log    mole V
   Species          Molality    Activity  Molality  Activity     Gamma   cm³/mol

   OH-             2.662e-07   2.420e-07    -6.575    -6.616    -0.041     -3.73
   H+              2.459e-07   2.262e-07    -6.609    -6.646    -0.036      0.00
   H2O             5.551e+01   9.998e-01     1.744    -0.000     0.000     18.23
C(-4)         1.157e-27
   CH4             1.157e-27   1.159e-27   -26.937   -26.936     0.001     37.33
C(4)          6.958e-03
   HCO3-           4.877e-03   4.453e-03    -2.312    -2.351    -0.039     25.78
   CO2             1.942e-03   1.945e-03    -2.712    -2.711     0.001     35.66
   CaHCO3+         1.295e-04   1.184e-04    -3.888    -3.927    -0.039     10.35
   CaCO3           7.075e-06   7.087e-06    -5.150    -5.150     0.001    -14.53
   CO3-2           1.896e-06   1.318e-06    -5.722    -5.880    -0.158     -5.05
   (CO2)2          1.418e-07   1.421e-07    -6.848    -6.848     0.001     71.32
Ca            2.512e-03
   Ca+2            2.376e-03   1.650e-03    -2.624    -2.783    -0.158    -17.99
   CaHCO3+         1.295e-04   1.184e-04    -3.888    -3.927    -0.039     10.35
   CaCO3           7.075e-06   7.087e-06    -5.150    -5.150     0.001    -14.53
   CaOH+           1.330e-09   1.210e-09    -8.876    -8.917    -0.041     (0)  
H(0)          5.093e-15
   H2              2.546e-15   2.551e-15   -14.594   -14.593     0.001     28.59
O(0)          0.000e+00
   O2              0.000e+00   0.000e+00   -55.750   -55.749     0.001     31.92

------------------------------Saturation indices-------------------------------

  Phase               SI** log IAP   log K(323 K,   1 atm)

  Aragonite        -0.13     -8.66   -8.54  CaCO3
  Calcite           0.00     -8.66   -8.66  CaCO3
  CH4(g)          -23.98    -26.94   -2.96  CH4
  CO2(g)           -1.00     -2.71   -1.71  CO2	 Pressure   0.1 atm, phi 1.000
  H2(g)           -11.46    -14.59   -3.14  H2
  H2O(g)           -0.92     -0.00    0.92  H2O
  O2(g)           -52.72    -55.75   -3.03  O2

**For a gas, SI = log10(fugacity). Fugacity = pressure * phi / 1 atm.
  For ideal gases, phi = 1.

------------------
End of simulation.
------------------

------------------------------------
Reading input data for simulation 5.
------------------------------------

	USE SOLUTION 1
	 EQUILIBRIUM_PHASES 1
	 CO2(g)     0 100
	 Calcite 0 10 dissolve_only
	 REACTION_TEMPERATURE 1
	 50
	 END
-----------------------------------------
Beginning of batch-reaction calculations.
-----------------------------------------

Reaction step 1.

Using solution 1.	
Using pure phase assemblage 1.	
Using temperature 1.	

-------------------------------Phase assemblage--------------------------------

                                                      Moles in assemblage
Phase               SI  log IAP  log K(T, P)   Initial       Final       Delta

CO2(g)           -0.00    -1.71     -1.71    1.000e+02   9.997e+01  -2.534e-02
Calcite           0.00    -8.66     -8.66    1.000e+01   9.994e+00  -6.023e-03

-----------------------------Solution composition------------------------------

	Elements           Molality       Moles

	C                 3.137e-02   3.137e-02
	Ca                6.024e-03   6.023e-03

----------------------------Description of solution----------------------------

                                       pH  =   6.001      Charge balance
                                       pe  =  -0.331      Adjusted to redox equilibrium
      Specific Conductance (µS/cm,  50°C)  = 1576
                          Density (g/cm³)  =   0.98896
                               Volume (L)  =   1.01290
                        Activity of water  =   0.999
                 Ionic strength (mol/kgw)  =   1.687e-02
                       Mass of water (kg)  =   9.999e-01
                 Total alkalinity (eq/kg)  =   1.205e-02
                       Total CO2 (mol/kg)  =   3.137e-02
                         Temperature (°C)  =  50.00
                  Electrical balance (eq)  =  -1.217e-09
 Percent error, 100*(Cat-|An|)/(Cat+|An|)  =  -0.00
                               Iterations  =  18
                                  Total H  = 1.110124e+02
                                  Total O  = 5.557497e+01

----------------------------Distribution of species----------------------------

                                               Log       Log       Log    mole V
   Species          Molality    Activity  Molality  Activity     Gamma   cm³/mol

   H+              1.120e-06   9.980e-07    -5.951    -6.001    -0.050      0.00
   OH-             6.298e-08   5.481e-08    -7.201    -7.261    -0.060     -3.66
   H2O             5.551e+01   9.994e-01     1.744    -0.000     0.000     18.23
C(-4)         1.199e-26
   CH4             1.199e-26   1.204e-26   -25.921   -25.919     0.002     37.33
C(4)          3.137e-02
   CO2             1.930e-02   1.938e-02    -1.714    -1.713     0.002     35.66
   HCO3-           1.144e-02   1.005e-02    -1.942    -1.998    -0.056     25.85
   CaHCO3+         5.933e-04   5.226e-04    -3.227    -3.282    -0.055     10.39
   (CO2)2          1.404e-05   1.410e-05    -4.853    -4.851     0.002     71.32
   CaCO3           7.060e-06   7.087e-06    -5.151    -5.150     0.002    -14.53
   CO3-2           1.132e-06   6.738e-07    -5.946    -6.171    -0.225     -4.84
Ca            6.024e-03
   Ca+2            5.423e-03   3.226e-03    -2.266    -2.491    -0.226    -17.84
   CaHCO3+         5.933e-04   5.226e-04    -3.227    -3.282    -0.055     10.39
   CaCO3           7.060e-06   7.087e-06    -5.151    -5.150     0.002    -14.53
   CaOH+           6.138e-10   5.361e-10    -9.212    -9.271    -0.059     (0)  
H(0)          5.133e-15
   H2              2.567e-15   2.577e-15   -14.591   -14.589     0.002     28.59
O(0)          0.000e+00
   O2              0.000e+00   0.000e+00   -55.760   -55.759     0.002     31.92

------------------------------Saturation indices-------------------------------

  Phase               SI** log IAP   log K(323 K,   1 atm)

  Aragonite        -0.13     -8.66   -8.54  CaCO3
  Calcite           0.00     -8.66   -8.66  CaCO3
  CH4(g)          -22.96    -25.92   -2.96  CH4
  CO2(g)           -0.00     -1.71   -1.71  CO2	 Pressure   1.0 atm, phi 0.996
  H2(g)           -11.45    -14.59   -3.14  H2
  H2O(g)           -0.92     -0.00    0.92  H2O
  O2(g)           -52.73    -55.76   -3.03  O2

**For a gas, SI = log10(fugacity). Fugacity = pressure * phi / 1 atm.
  For ideal gases, phi = 1.

------------------
End of simulation.
------------------

------------------------------------
Reading input data for simulation 6.
------------------------------------

	USE SOLUTION 1
	 EQUILIBRIUM_PHASES 1
	 CO2(g)     1 100
	 Calcite 0 10 dissolve_only
	 REACTION_TEMPERATURE 1
	 50
	 END
-----------------------------------------
Beginning of batch-reaction calculations.
-----------------------------------------

Reaction step 1.

Using solution 1.	
Using pure phase assemblage 1.	
Using temperature 1.	

-------------------------------Phase assemblage--------------------------------

                                                      Moles in assemblage
Phase               SI  log IAP  log K(T, P)   Initial       Final       Delta

CO2(g)            0.98    -0.73     -1.71    1.000e+02   9.980e+01  -2.021e-01
Calcite           0.00    -8.66     -8.66    1.000e+01   9.985e+00  -1.498e-02

-----------------------------Solution composition------------------------------

	Elements           Molality       Moles

	C                 2.172e-01   2.171e-01
	Ca                1.498e-02   1.498e-02

----------------------------Description of solution----------------------------

                                       pH  =   5.375      Charge balance
                                       pe  =   0.290      Adjusted to redox equilibrium
      Specific Conductance (µS/cm,  50°C)  = 3514
                          Density (g/cm³)  =   0.99152
                               Volume (L)  =   1.01904
                        Activity of water  =   0.996
                 Ionic strength (mol/kgw)  =   3.967e-02
                       Mass of water (kg)  =   9.997e-01
                 Total alkalinity (eq/kg)  =   2.996e-02
                       Total CO2 (mol/kg)  =   2.172e-01
                         Temperature (°C)  =  50.00
                  Electrical balance (eq)  =  -1.184e-09
 Percent error, 100*(Cat-|An|)/(Cat+|An|)  =  -0.00
                               Iterations  =  17
                                  Total H  = 1.110124e+02
                                  Total O  = 5.595542e+01

----------------------------Distribution of species----------------------------

                                               Log       Log       Log    mole V
   Species          Molality    Activity  Molality  Activity     Gamma   cm³/mol

   H+              4.913e-06   4.214e-06    -5.309    -5.375    -0.067      0.00
   OH-             1.579e-08   1.294e-08    -7.802    -7.888    -0.086     -3.55
   H2O             5.551e+01   9.961e-01     1.744    -0.002     0.000     18.23
C(-4)         1.258e-25
   CH4             1.258e-25   1.270e-25   -24.900   -24.896     0.004     37.33
C(4)          2.172e-01
   CO2             1.846e-01   1.863e-01    -0.734    -0.730     0.004     35.66
   HCO3-           2.732e-02   2.281e-02    -1.563    -1.642    -0.078     25.97
   CaHCO3+         2.629e-03   2.206e-03    -2.580    -2.656    -0.076     10.44
   (CO2)2          1.291e-03   1.303e-03    -2.889    -2.885     0.004     71.32
   CaCO3           7.023e-06   7.087e-06    -5.153    -5.150     0.004    -14.53
   CO3-2           7.460e-07   3.623e-07    -6.127    -6.441    -0.314     -4.53
Ca            1.498e-02
   Ca+2            1.235e-02   6.000e-03    -1.908    -2.222    -0.313    -17.62
   CaHCO3+         2.629e-03   2.206e-03    -2.580    -2.656    -0.076     10.44
   CaCO3           7.023e-06   7.087e-06    -5.153    -5.150     0.004    -14.53
   CaOH+           2.846e-10   2.354e-10    -9.546    -9.628    -0.082     (0)  
H(0)          5.218e-15
   H2              2.609e-15   2.633e-15   -14.584   -14.580     0.004     28.59
O(0)          0.000e+00
   O2              0.000e+00   0.000e+00   -55.784   -55.780     0.004     31.92

------------------------------Saturation indices-------------------------------

  Phase               SI** log IAP   log K(323 K,   1 atm)

  Aragonite        -0.13     -8.66   -8.54  CaCO3
  Calcite           0.00     -8.66   -8.66  CaCO3
  CH4(g)          -21.94    -24.90   -2.96  CH4
  CO2(g)            0.98     -0.73   -1.71  CO2	 Pressure  10.0 atm, phi 0.957
  H2(g)           -11.44    -14.58   -3.14  H2
  H2O(g)           -0.92     -0.00    0.92  H2O
  O2(g)           -52.75    -55.78   -3.03  O2

**For a gas, SI = log10(fugacity). Fugacity = pressure * phi / 1 atm.
  For ideal gases, phi = 1.

------------------
End of simulation.
------------------

------------------------------------
Reading input data for simulation 7.
------------------------------------

	USE SOLUTION 1
	 EQUILIBRIUM_PHASES 1
	 CO2(g)     2 100
	 Calcite 0 10 dissolve_only
	 REACTION_TEMPERATURE 1
	 50
	 END
-----------------------------------------
Beginning of batch-reaction calculations.
-----------------------------------------

Reaction step 1.

Using solution 1.	
Using pure phase assemblage 1.	
Using temperature 1.	

-------------------------------Phase assemblage--------------------------------

                                                      Moles in assemblage
Phase               SI  log IAP  log K(T, P)   Initial       Final       Delta

CO2(g)            1.79     0.08     -1.71    1.000e+02   9.869e+01  -1.310e+00
Calcite           0.00    -8.66     -8.66    1.000e+01   9.967e+00  -3.287e-02

-----------------------------Solution composition------------------------------

	Elements           Molality       Moles

	C                 1.343e+00   1.343e+00
	Ca                3.289e-02   3.287e-02

----------------------------Description of solution----------------------------

                                       pH  =   4.874      Charge balance
                                       pe  =   0.712      Adjusted to redox equilibrium
      Specific Conductance (µS/cm,  50°C)  = 6785
                          Density (g/cm³)  =   1.00257
                               Volume (L)  =   1.05821
                        Activity of water  =   0.978
                 Ionic strength (mol/kgw)  =   8.115e-02
                       Mass of water (kg)  =   9.994e-01
                 Total alkalinity (eq/kg)  =   6.578e-02
                       Total CO2 (mol/kg)  =   1.343e+00
                         Temperature (°C)  =  50.00
                  Electrical balance (eq)  =  -1.178e-09
 Percent error, 100*(Cat-|An|)/(Cat+|An|)  =  -0.00
                               Iterations  =  26
                                  Total H  = 1.110124e+02
                                  Total O  = 5.822421e+01

----------------------------Distribution of species----------------------------

                                               Log       Log       Log    mole V
   Species          Molality    Activity  Molality  Activity     Gamma   cm³/mol

   H+              1.616e-05   1.337e-05    -4.792    -4.874    -0.082      0.00
   OH-             5.207e-09   4.001e-09    -8.283    -8.398    -0.114     -3.41
   H2O             5.551e+01   9.776e-01     1.744    -0.010     0.000     18.23
C(-4)         3.554e-24
   CH4             3.554e-24   3.621e-24   -23.449   -23.441     0.008     37.33
C(4)          1.343e+00
   CO2             1.172e+00   1.195e+00     0.069     0.077     0.008     35.66
   HCO3-           5.702e-02   4.522e-02    -1.244    -1.345    -0.101     26.15
   (CO2)2          5.258e-02   5.357e-02    -1.279    -1.271     0.008     71.32
   CaHCO3+         8.757e-03   7.003e-03    -2.058    -2.155    -0.097     10.49
   CaCO3           6.956e-06   7.087e-06    -5.158    -5.150     0.008    -14.53
   CO3-2           5.723e-07   2.263e-07    -6.242    -6.645    -0.403     -4.15
Ca            3.289e-02
   Ca+2            2.413e-02   9.607e-03    -1.618    -2.017    -0.400    -17.40
   CaHCO3+         8.757e-03   7.003e-03    -2.058    -2.155    -0.097     10.49
   CaCO3           6.956e-06   7.087e-06    -5.158    -5.150     0.008    -14.53
   CaOH+           1.486e-10   1.165e-10    -9.828    -9.934    -0.106     (0)  
H(0)          7.435e-15
   H2              3.718e-15   3.788e-15   -14.430   -14.422     0.008     28.59
O(0)          0.000e+00
   O2              0.000e+00   0.000e+00   -56.121   -56.112     0.008     31.92

------------------------------Saturation indices-------------------------------

  Phase               SI** log IAP   log K(323 K,   1 atm)

  Aragonite        -0.13     -8.66   -8.54  CaCO3
  Calcite           0.00     -8.66   -8.66  CaCO3
  CH4(g)          -20.48    -23.44   -2.96  CH4
  CO2(g)            1.79      0.08   -1.71  CO2	 Pressure 100.0 atm, phi 0.614
  H2(g)           -11.29    -14.42   -3.14  H2
  H2O(g)           -0.93     -0.01    0.92  H2O
  O2(g)           -53.08    -56.11   -3.03  O2

**For a gas, SI = log10(fugacity). Fugacity = pressure * phi / 1 atm.
  For ideal gases, phi = 1.

------------------
End of simulation.
------------------

------------------------------------
Reading input data for simulation 8.
------------------------------------

----------------------------------
End of Run after 0.049503 Seconds.
----------------------------------

