   Input file: ../examples/StreamModel_T50.pqi
  Output file: ../examples/StreamModel_T50.pqi.out
Database file: ../database/phreeqc-extended.dat

------------------
Reading data base.
------------------

	SOLUTION_MASTER_SPECIES
	SOLUTION_SPECIES
	PHASES
	EXCHANGE_MASTER_SPECIES
	EXCHANGE_SPECIES
	SURFACE_MASTER_SPECIES
	SURFACE_SPECIES
	RATES
	END
------------------------------------
Reading input data for simulation 1.
------------------------------------

	DATABASE ../database/phreeqc-extended.dat
	SOLUTION 1
	    temp      25
	    pH        7
	    pe        4
	    redox     pe
	    units     mmol/kgw
	    density   1
	    water    1 # kg
	SELECTED_OUTPUT 1
	    file                 ../examples/StreamModel_T50.sel
	    reset                false
	    temperature          true
	    ph          true
	    totals               P
	    saturation_indices   CO2(g)
	USE SOLUTION 1
	 EQUILIBRIUM_PHASES 1
	 CO2(g)    -4 100
	 Hydroxyapatite 0 10 dissolve_only
	 Fluorapatite 0 10 dissolve_only
	 Calcite 0 10 dissolve_only
	 REACTION_TEMPERATURE 1
	 50
	 END
-------------------------------------------
Beginning of initial solution calculations.
-------------------------------------------

Initial solution 1.	

-----------------------------Solution composition------------------------------

	Elements           Molality       Moles

	Pure water     

----------------------------Description of solution----------------------------

                                       pH  =   7.000    
                                       pe  =   4.000    
      Specific Conductance (µS/cm,  25°C)  = 0
                          Density (g/cm³)  =   0.99704
                               Volume (L)  =   1.00297
                        Activity of water  =   1.000
                 Ionic strength (mol/kgw)  =   1.007e-07
                       Mass of water (kg)  =   1.000e+00
                 Total alkalinity (eq/kg)  =   1.217e-09
                         Temperature (°C)  =  25.00
                  Electrical balance (eq)  =  -1.217e-09
 Percent error, 100*(Cat-|An|)/(Cat+|An|)  =  -0.60
                               Iterations  =   0
                                  Total H  = 1.110124e+02
                                  Total O  = 5.550622e+01

----------------------------Distribution of species----------------------------

                                               Log       Log       Log    mole V
   Species          Molality    Activity  Molality  Activity     Gamma   cm³/mol

   OH-             1.013e-07   1.012e-07    -6.995    -6.995    -0.000     -4.14
   H+              1.001e-07   1.000e-07    -7.000    -7.000    -0.000      0.00
   H2O             5.551e+01   1.000e+00     1.744     0.000     0.000     18.07
H(0)          1.416e-25
   H2              7.079e-26   7.079e-26   -25.150   -25.150     0.000     28.61
O(0)          0.000e+00
   O2              0.000e+00   0.000e+00   -42.080   -42.080     0.000     30.40

------------------------------Saturation indices-------------------------------

  Phase               SI** log IAP   log K(298 K,   1 atm)

  H2(g)           -22.05    -25.15   -3.10  H2
  H2O(g)           -1.50      0.00    1.50  H2O
  O2(g)           -39.19    -42.08   -2.89  O2

**For a gas, SI = log10(fugacity). Fugacity = pressure * phi / 1 atm.
  For ideal gases, phi = 1.

-----------------------------------------
Beginning of batch-reaction calculations.
-----------------------------------------

Reaction step 1.

Using solution 1.	
Using pure phase assemblage 1.	
Using temperature 1.	

-------------------------------Phase assemblage--------------------------------

                                                      Moles in assemblage
Phase               SI  log IAP  log K(T, P)   Initial       Final       Delta

CO2(g)           -4.00    -5.71     -1.71    1.000e+02   1.000e+02  -1.986e-04
Calcite           0.00    -8.66     -8.66    1.000e+01   1.000e+01  -2.382e-04
Fluorapatite     -0.00   -60.29    -60.29    1.000e+01   1.000e+01  -1.702e-10
Hydroxyapatite    0.00    -5.47     -5.47    1.000e+01   1.000e+01  -3.874e-08

-----------------------------Solution composition------------------------------

	Elements           Molality       Moles

	C                 4.368e-04   4.368e-04
	Ca                2.384e-04   2.384e-04
	F                 1.702e-10   1.702e-10
	P                 1.167e-07   1.167e-07

----------------------------Description of solution----------------------------

                                       pH  =   8.600      Charge balance
                                       pe  =  -2.919      Adjusted to redox equilibrium
      Specific Conductance (µS/cm,  50°C)  = 78
                          Density (g/cm³)  =   0.98806
                               Volume (L)  =   1.01212
                        Activity of water  =   1.000
                 Ionic strength (mol/kgw)  =   7.034e-04
                       Mass of water (kg)  =   1.000e+00
                 Total alkalinity (eq/kg)  =   4.768e-04
                       Total CO2 (mol/kg)  =   4.368e-04
                         Temperature (°C)  =  50.00
                  Electrical balance (eq)  =  -1.212e-09
 Percent error, 100*(Cat-|An|)/(Cat+|An|)  =  -0.00
                               Iterations  =  15
                                  Total H  = 1.110124e+02
                                  Total O  = 5.550733e+01

----------------------------Distribution of species----------------------------

                                               Log       Log       Log    mole V
   Species          Molality    Activity  Molality  Activity     Gamma   cm³/mol

   OH-             2.251e-05   2.181e-05    -4.648    -4.661    -0.014     -3.80
   H+              2.587e-09   2.509e-09    -8.587    -8.600    -0.013      0.00
   H2O             5.551e+01   1.000e+00     1.744    -0.000     0.000     18.23
C(-4)         9.788e-31
   CH4             9.788e-31   9.789e-31   -30.009   -30.009     0.000     37.33
C(4)          4.368e-04
   HCO3-           4.143e-04   4.016e-04    -3.383    -3.396    -0.014     25.70
   CO3-2           1.213e-05   1.071e-05    -4.916    -4.970    -0.054     -5.32
   CaCO3           7.086e-06   7.087e-06    -5.150    -5.150     0.000    -14.53
   CO2             1.946e-06   1.946e-06    -5.711    -5.711     0.000     35.66
   CaHCO3+         1.355e-06   1.314e-06    -5.868    -5.881    -0.013     10.29
   (CO2)2          1.422e-13   1.422e-13   -12.847   -12.847     0.000     71.32
Ca            2.384e-04
   Ca+2            2.299e-04   2.030e-04    -3.638    -3.693    -0.054    -18.23
   CaCO3           7.086e-06   7.087e-06    -5.150    -5.150     0.000    -14.53
   CaHCO3+         1.355e-06   1.314e-06    -5.868    -5.881    -0.013     10.29
   CaPO4-          1.878e-08   1.820e-08    -7.726    -7.740    -0.014     (0)  
   CaOH+           1.385e-08   1.342e-08    -7.858    -7.872    -0.014     (0)  
   CaHPO4          1.250e-08   1.250e-08    -7.903    -7.903     0.000     (0)  
   CaH2PO4+        2.165e-11   2.099e-11   -10.664   -10.678    -0.014     (0)  
F             1.702e-10
   F-              1.702e-10   1.649e-10    -9.769    -9.783    -0.014     -1.52
   HF              9.943e-16   9.945e-16   -15.002   -15.002     0.000     13.33
   HF2-            7.340e-25   7.112e-25   -24.134   -24.148    -0.014     22.61
H(0)          4.889e-15
   H2              2.445e-15   2.445e-15   -14.612   -14.612     0.000     28.59
O(0)          0.000e+00
   O2              0.000e+00   0.000e+00   -55.713   -55.713     0.000     31.92
P             1.167e-07
   HPO4-2          8.273e-08   7.300e-08    -7.082    -7.137    -0.054      5.41
   CaPO4-          1.878e-08   1.820e-08    -7.726    -7.740    -0.014     (0)  
   CaHPO4          1.250e-08   1.250e-08    -7.903    -7.903     0.000     (0)  
   H2PO4-          2.675e-09   2.593e-09    -8.573    -8.586    -0.014     32.51
   PO4-3           2.762e-11   2.079e-11   -10.559   -10.682    -0.123    -26.08
   CaH2PO4+        2.165e-11   2.099e-11   -10.664   -10.678    -0.014     (0)  
   H3PO4           1.261e-15   1.261e-15   -14.899   -14.899     0.000     48.41

------------------------------Saturation indices-------------------------------

  Phase               SI** log IAP   log K(323 K,   1 atm)

  Aragonite        -0.13     -8.66   -8.54  CaCO3
  Calcite           0.00     -8.66   -8.66  CaCO3
  CH4(g)          -27.05    -30.01   -2.96  CH4
  CO2(g)           -4.00     -5.71   -1.71  CO2	 Pressure   0.0 atm, phi 1.000
  Fluorapatite     -0.00    -60.29  -60.29  Ca5(F)(PO4)3
  Fluorite        -12.89    -23.26  -10.37  CaF2
  H2(g)           -11.48    -14.61   -3.14  H2
  H2O(g)           -0.92     -0.00    0.92  H2O
  Hydroxyapatite    0.00     -5.47   -5.47  Ca5(PO4)3OH
  Hydroxylapatite   3.67    -55.17  -58.84  Ca5(OH)(PO4)3
  O2(g)           -52.68    -55.71   -3.03  O2

**For a gas, SI = log10(fugacity). Fugacity = pressure * phi / 1 atm.
  For ideal gases, phi = 1.

------------------
End of simulation.
------------------

------------------------------------
Reading input data for simulation 2.
------------------------------------

	USE SOLUTION 1
	 EQUILIBRIUM_PHASES 1
	 CO2(g)    -3.96 100
	 Hydroxyapatite 0 10 dissolve_only
	 Fluorapatite 0 10 dissolve_only
	 Calcite 0 10 dissolve_only
	 REACTION_TEMPERATURE 1
	 50
	 END
-----------------------------------------
Beginning of batch-reaction calculations.
-----------------------------------------

Reaction step 1.

Using solution 1.	
Using pure phase assemblage 1.	
Using temperature 1.	

-------------------------------Phase assemblage--------------------------------

                                                      Moles in assemblage
Phase               SI  log IAP  log K(T, P)   Initial       Final       Delta

CO2(g)           -3.96    -5.67     -1.71    1.000e+02   1.000e+02  -2.066e-04
Calcite           0.00    -8.66     -8.66    1.000e+01   1.000e+01  -2.445e-04
Fluorapatite      0.00   -60.29    -60.29    1.000e+01   1.000e+01  -6.058e-11
Hydroxyapatite    0.00    -5.47     -5.47    1.000e+01   1.000e+01  -4.019e-08

-----------------------------Solution composition------------------------------

	Elements           Molality       Moles

	C                 4.511e-04   4.511e-04
	Ca                2.447e-04   2.447e-04
	F                 1.606e-10   1.606e-10
	P                 1.210e-07   1.210e-07

----------------------------Description of solution----------------------------

                                       pH  =   8.575      Charge balance
                                       pe  =  -2.894      Adjusted to redox equilibrium
      Specific Conductance (µS/cm,  50°C)  = 80
                          Density (g/cm³)  =   0.98806
                               Volume (L)  =   1.01212
                        Activity of water  =   1.000
                 Ionic strength (mol/kgw)  =   7.218e-04
                       Mass of water (kg)  =   1.000e+00
                 Total alkalinity (eq/kg)  =   4.893e-04
                       Total CO2 (mol/kg)  =   4.511e-04
                         Temperature (°C)  =  50.00
                  Electrical balance (eq)  =  -1.217e-09
 Percent error, 100*(Cat-|An|)/(Cat+|An|)  =  -0.00
                               Iterations  =  16
                                  Total H  = 1.110124e+02
                                  Total O  = 5.550736e+01

----------------------------Distribution of species----------------------------

                                               Log       Log       Log    mole V
   Species          Molality    Activity  Molality  Activity     Gamma   cm³/mol

   OH-             2.124e-05   2.057e-05    -4.673    -4.687    -0.014     -3.80
   H+              2.744e-09   2.661e-09    -8.562    -8.575    -0.013      0.00
   H2O             5.551e+01   1.000e+00     1.744    -0.000     0.000     18.23
C(-4)         1.073e-30
   CH4             1.073e-30   1.073e-30   -29.970   -29.970     0.000     37.33
C(4)          4.511e-04
   HCO3-           4.286e-04   4.153e-04    -3.368    -3.382    -0.014     25.70
   CO3-2           1.185e-05   1.045e-05    -4.926    -4.981    -0.055     -5.32
   CaCO3           7.086e-06   7.087e-06    -5.150    -5.150     0.000    -14.53
   CO2             2.134e-06   2.134e-06    -5.671    -5.671     0.000     35.66
   CaHCO3+         1.438e-06   1.393e-06    -5.842    -5.856    -0.014     10.29
   (CO2)2          1.709e-13   1.709e-13   -12.767   -12.767     0.000     71.32
Ca            2.447e-04
   Ca+2            2.361e-04   2.081e-04    -3.627    -3.682    -0.055    -18.23
   CaCO3           7.086e-06   7.087e-06    -5.150    -5.150     0.000    -14.53
   CaHCO3+         1.438e-06   1.393e-06    -5.842    -5.856    -0.014     10.29
   CaPO4-          1.884e-08   1.825e-08    -7.725    -7.739    -0.014     (0)  
   CaOH+           1.340e-08   1.298e-08    -7.873    -7.887    -0.014     (0)  
   CaHPO4          1.329e-08   1.329e-08    -7.877    -7.876     0.000     (0)  
   CaH2PO4+        2.442e-11   2.366e-11   -10.612   -10.626    -0.014     (0)  
F             1.606e-10
   F-              1.606e-10   1.555e-10    -9.794    -9.808    -0.014     -1.52
   HF              9.943e-16   9.945e-16   -15.002   -15.002     0.000     13.33
   HF2-            6.925e-25   6.708e-25   -24.160   -24.173    -0.014     22.61
H(0)          4.888e-15
   H2              2.444e-15   2.445e-15   -14.612   -14.612     0.000     28.59
O(0)          0.000e+00
   O2              0.000e+00   0.000e+00   -55.713   -55.712     0.000     31.92
P             1.210e-07
   HPO4-2          8.592e-08   7.570e-08    -7.066    -7.121    -0.055      5.41
   CaPO4-          1.884e-08   1.825e-08    -7.725    -7.739    -0.014     (0)  
   CaHPO4          1.329e-08   1.329e-08    -7.877    -7.876     0.000     (0)  
   H2PO4-          2.942e-09   2.851e-09    -8.531    -8.545    -0.014     32.51
   PO4-3           2.711e-11   2.034e-11   -10.567   -10.692    -0.125    -26.08
   CaH2PO4+        2.442e-11   2.366e-11   -10.612   -10.626    -0.014     (0)  
   H3PO4           1.470e-15   1.470e-15   -14.833   -14.833     0.000     48.41

------------------------------Saturation indices-------------------------------

  Phase               SI** log IAP   log K(323 K,   1 atm)

  Aragonite        -0.13     -8.66   -8.54  CaCO3
  Calcite           0.00     -8.66   -8.66  CaCO3
  CH4(g)          -27.01    -29.97   -2.96  CH4
  CO2(g)           -3.96     -5.67   -1.71  CO2	 Pressure   0.0 atm, phi 1.000
  Fluorapatite      0.00    -60.29  -60.29  Ca5(F)(PO4)3
  Fluorite        -12.93    -23.30  -10.37  CaF2
  H2(g)           -11.48    -14.61   -3.14  H2
  H2O(g)           -0.92     -0.00    0.92  H2O
  Hydroxyapatite    0.00     -5.47   -5.47  Ca5(PO4)3OH
  Hydroxylapatite   3.67    -55.17  -58.84  Ca5(OH)(PO4)3
  O2(g)           -52.68    -55.71   -3.03  O2

**For a gas, SI = log10(fugacity). Fugacity = pressure * phi / 1 atm.
  For ideal gases, phi = 1.

------------------
End of simulation.
------------------

------------------------------------
Reading input data for simulation 3.
------------------------------------

	USE SOLUTION 1
	 EQUILIBRIUM_PHASES 1
	 CO2(g)    -3.92 100
	 Hydroxyapatite 0 10 dissolve_only
	 Fluorapatite 0 10 dissolve_only
	 Calcite 0 10 dissolve_only
	 REACTION_TEMPERATURE 1
	 50
	 END
-----------------------------------------
Beginning of batch-reaction calculations.
-----------------------------------------

Reaction step 1.

Using solution 1.	
Using pure phase assemblage 1.	
Using temperature 1.	

-------------------------------Phase assemblage--------------------------------

                                                      Moles in assemblage
Phase               SI  log IAP  log K(T, P)   Initial       Final       Delta

CO2(g)           -3.92    -5.63     -1.71    1.000e+02   1.000e+02  -2.148e-04
Calcite           0.00    -8.66     -8.66    1.000e+01   1.000e+01  -2.510e-04
Fluorapatite      0.00   -60.29    -60.29    1.000e+01   1.000e+01  -5.149e-11
Hydroxyapatite    0.00    -5.47     -5.47    1.000e+01   1.000e+01  -4.169e-08

-----------------------------Solution composition------------------------------

	Elements           Molality       Moles

	C                 4.658e-04   4.658e-04
	Ca                2.512e-04   2.512e-04
	F                 1.515e-10   1.515e-10
	P                 1.255e-07   1.255e-07

----------------------------Description of solution----------------------------

                                       pH  =   8.549      Charge balance
                                       pe  =  -2.868      Adjusted to redox equilibrium
      Specific Conductance (µS/cm,  50°C)  = 81
                          Density (g/cm³)  =   0.98806
                               Volume (L)  =   1.01212
                        Activity of water  =   1.000
                 Ionic strength (mol/kgw)  =   7.410e-04
                       Mass of water (kg)  =   1.000e+00
                 Total alkalinity (eq/kg)  =   5.024e-04
                       Total CO2 (mol/kg)  =   4.658e-04
                         Temperature (°C)  =  50.00
                  Electrical balance (eq)  =  -1.217e-09
 Percent error, 100*(Cat-|An|)/(Cat+|An|)  =  -0.00
                               Iterations  =  16
                                  Total H  = 1.110124e+02
                                  Total O  = 5.550740e+01

----------------------------Distribution of species----------------------------

                                               Log       Log       Log    mole V
   Species          Molality    Activity  Molality  Activity     Gamma   cm³/mol

   OH-             2.004e-05   1.940e-05    -4.698    -4.712    -0.014     -3.80
   H+              2.911e-09   2.822e-09    -8.536    -8.549    -0.013      0.00
   H2O             5.551e+01   1.000e+00     1.744    -0.000     0.000     18.23
C(-4)         1.176e-30
   CH4             1.176e-30   1.177e-30   -29.929   -29.929     0.000     37.33
C(4)          4.658e-04
   HCO3-           4.433e-04   4.294e-04    -3.353    -3.367    -0.014     25.70
   CO3-2           1.157e-05   1.018e-05    -4.937    -4.992    -0.055     -5.32
   CaCO3           7.086e-06   7.087e-06    -5.150    -5.150     0.000    -14.53
   CO2             2.339e-06   2.340e-06    -5.631    -5.631     0.000     35.66
   CaHCO3+         1.525e-06   1.478e-06    -5.817    -5.830    -0.014     10.29
   (CO2)2          2.055e-13   2.055e-13   -12.687   -12.687     0.000     71.32
Ca            2.512e-04
   Ca+2            2.426e-04   2.135e-04    -3.615    -3.671    -0.056    -18.23
   CaCO3           7.086e-06   7.087e-06    -5.150    -5.150     0.000    -14.53
   CaHCO3+         1.525e-06   1.478e-06    -5.817    -5.830    -0.014     10.29
   CaPO4-          1.890e-08   1.830e-08    -7.724    -7.737    -0.014     (0)  
   CaHPO4          1.413e-08   1.413e-08    -7.850    -7.850     0.000     (0)  
   CaOH+           1.297e-08   1.255e-08    -7.887    -7.901    -0.014     (0)  
   CaH2PO4+        2.755e-11   2.668e-11   -10.560   -10.574    -0.014     (0)  
F             1.515e-10
   F-              1.515e-10   1.466e-10    -9.820    -9.834    -0.014     -1.52
   HF              9.943e-16   9.945e-16   -15.002   -15.002     0.000     13.33
   HF2-            6.533e-25   6.325e-25   -24.185   -24.199    -0.014     22.61
H(0)          4.889e-15
   H2              2.444e-15   2.445e-15   -14.612   -14.612     0.000     28.59
O(0)          0.000e+00
   O2              0.000e+00   0.000e+00   -55.713   -55.713     0.000     31.92
P             1.255e-07
   HPO4-2          8.922e-08   7.848e-08    -7.050    -7.105    -0.056      5.41
   CaPO4-          1.890e-08   1.830e-08    -7.724    -7.737    -0.014     (0)  
   CaHPO4          1.413e-08   1.413e-08    -7.850    -7.850     0.000     (0)  
   H2PO4-          3.236e-09   3.134e-09    -8.490    -8.504    -0.014     32.51
   CaH2PO4+        2.755e-11   2.668e-11   -10.560   -10.574    -0.014     (0)  
   PO4-3           2.660e-11   1.988e-11   -10.575   -10.702    -0.126    -26.07
   H3PO4           1.714e-15   1.714e-15   -14.766   -14.766     0.000     48.41

------------------------------Saturation indices-------------------------------

  Phase               SI** log IAP   log K(323 K,   1 atm)

  Aragonite        -0.13     -8.66   -8.54  CaCO3
  Calcite           0.00     -8.66   -8.66  CaCO3
  CH4(g)          -26.97    -29.93   -2.96  CH4
  CO2(g)           -3.92     -5.63   -1.71  CO2	 Pressure   0.0 atm, phi 1.000
  Fluorapatite      0.00    -60.29  -60.29  Ca5(F)(PO4)3
  Fluorite        -12.97    -23.34  -10.37  CaF2
  H2(g)           -11.48    -14.61   -3.14  H2
  H2O(g)           -0.92     -0.00    0.92  H2O
  Hydroxyapatite    0.00     -5.47   -5.47  Ca5(PO4)3OH
  Hydroxylapatite   3.67    -55.17  -58.84  Ca5(OH)(PO4)3
  O2(g)           -52.68    -55.71   -3.03  O2

**For a gas, SI = log10(fugacity). Fugacity = pressure * phi / 1 atm.
  For ideal gases, phi = 1.

------------------
End of simulation.
------------------

------------------------------------
Reading input data for simulation 4.
------------------------------------

	USE SOLUTION 1
	 EQUILIBRIUM_PHASES 1
	 CO2(g)    -3.88 100
	 Hydroxyapatite 0 10 dissolve_only
	 Fluorapatite 0 10 dissolve_only
	 Calcite 0 10 dissolve_only
	 REACTION_TEMPERATURE 1
	 50
	 END
-----------------------------------------
Beginning of batch-reaction calculations.
-----------------------------------------

Reaction step 1.

Using solution 1.	
Using pure phase assemblage 1.	
Using temperature 1.	

-------------------------------Phase assemblage--------------------------------

                                                      Moles in assemblage
Phase               SI  log IAP  log K(T, P)   Initial       Final       Delta

CO2(g)           -3.88    -5.59     -1.71    1.000e+02   1.000e+02  -2.232e-04
Calcite           0.00    -8.66     -8.66    1.000e+01   1.000e+01  -2.578e-04
Fluorapatite      0.00   -60.29    -60.29    1.000e+01   1.000e+01  -4.289e-11
Hydroxyapatite   -0.00    -5.47     -5.47    1.000e+01   1.000e+01  -4.326e-08

-----------------------------Solution composition------------------------------

	Elements           Molality       Moles

	C                 4.811e-04   4.811e-04
	Ca                2.580e-04   2.580e-04
	F                 1.429e-10   1.429e-10
	P                 1.302e-07   1.302e-07

----------------------------Description of solution----------------------------

                                       pH  =   8.524      Charge balance
                                       pe  =  -2.843      Adjusted to redox equilibrium
      Specific Conductance (µS/cm,  50°C)  = 83
                          Density (g/cm³)  =   0.98806
                               Volume (L)  =   1.01212
                        Activity of water  =   1.000
                 Ionic strength (mol/kgw)  =   7.609e-04
                       Mass of water (kg)  =   1.000e+00
                 Total alkalinity (eq/kg)  =   5.159e-04
                       Total CO2 (mol/kg)  =   4.811e-04
                         Temperature (°C)  =  50.00
                  Electrical balance (eq)  =  -1.217e-09
 Percent error, 100*(Cat-|An|)/(Cat+|An|)  =  -0.00
                               Iterations  =  16
                                  Total H  = 1.110124e+02
                                  Total O  = 5.550744e+01

----------------------------Distribution of species----------------------------

                                               Log       Log       Log    mole V
   Species          Molality    Activity  Molality  Activity     Gamma   cm³/mol

   OH-             1.890e-05   1.829e-05    -4.724    -4.738    -0.014     -3.80
   H+              3.088e-09   2.993e-09    -8.510    -8.524    -0.014      0.00
   H2O             5.551e+01   1.000e+00     1.744    -0.000     0.000     18.23
C(-4)         1.290e-30
   CH4             1.290e-30   1.290e-30   -29.889   -29.889     0.000     37.33
C(4)          4.811e-04
   HCO3-           4.585e-04   4.439e-04    -3.339    -3.353    -0.014     25.70
   CO3-2           1.130e-05   9.927e-06    -4.947    -5.003    -0.056     -5.32
   CaCO3           7.086e-06   7.087e-06    -5.150    -5.150     0.000    -14.53
   CO2             2.565e-06   2.565e-06    -5.591    -5.591     0.000     35.66
   CaHCO3+         1.618e-06   1.567e-06    -5.791    -5.805    -0.014     10.29
   (CO2)2          2.470e-13   2.471e-13   -12.607   -12.607     0.000     71.32
Ca            2.580e-04
   Ca+2            2.493e-04   2.190e-04    -3.603    -3.660    -0.056    -18.23
   CaCO3           7.086e-06   7.087e-06    -5.150    -5.150     0.000    -14.53
   CaHCO3+         1.618e-06   1.567e-06    -5.791    -5.805    -0.014     10.29
   CaPO4-          1.895e-08   1.835e-08    -7.722    -7.736    -0.014     (0)  
   CaHPO4          1.502e-08   1.503e-08    -7.823    -7.823     0.000     (0)  
   CaOH+           1.255e-08   1.214e-08    -7.901    -7.916    -0.014     (0)  
   CaH2PO4+        3.108e-11   3.009e-11   -10.507   -10.522    -0.014     (0)  
F             1.429e-10
   F-              1.429e-10   1.383e-10    -9.845    -9.859    -0.014     -1.52
   HF              9.943e-16   9.945e-16   -15.002   -15.002     0.000     13.33
   HF2-            6.162e-25   5.964e-25   -24.210   -24.224    -0.014     22.61
H(0)          4.889e-15
   H2              2.444e-15   2.445e-15   -14.612   -14.612     0.000     28.59
O(0)          0.000e+00
   O2              0.000e+00   0.000e+00   -55.713   -55.713     0.000     31.92
P             1.302e-07
   HPO4-2          9.262e-08   8.134e-08    -7.033    -7.090    -0.056      5.41
   CaPO4-          1.895e-08   1.835e-08    -7.722    -7.736    -0.014     (0)  
   CaHPO4          1.502e-08   1.503e-08    -7.823    -7.823     0.000     (0)  
   H2PO4-          3.559e-09   3.446e-09    -8.449    -8.463    -0.014     32.51
   CaH2PO4+        3.108e-11   3.009e-11   -10.507   -10.522    -0.014     (0)  
   PO4-3           2.609e-11   1.943e-11   -10.584   -10.712    -0.128    -26.07
   H3PO4           1.998e-15   1.999e-15   -14.699   -14.699     0.000     48.41

------------------------------Saturation indices-------------------------------

  Phase               SI** log IAP   log K(323 K,   1 atm)

  Aragonite        -0.13     -8.66   -8.54  CaCO3
  Calcite           0.00     -8.66   -8.66  CaCO3
  CH4(g)          -26.93    -29.89   -2.96  CH4
  CO2(g)           -3.88     -5.59   -1.71  CO2	 Pressure   0.0 atm, phi 1.000
  Fluorapatite      0.00    -60.29  -60.29  Ca5(F)(PO4)3
  Fluorite        -13.01    -23.38  -10.37  CaF2
  H2(g)           -11.48    -14.61   -3.14  H2
  H2O(g)           -0.92     -0.00    0.92  H2O
  Hydroxyapatite   -0.00     -5.47   -5.47  Ca5(PO4)3OH
  Hydroxylapatite   3.67    -55.17  -58.84  Ca5(OH)(PO4)3
  O2(g)           -52.68    -55.71   -3.03  O2

**For a gas, SI = log10(fugacity). Fugacity = pressure * phi / 1 atm.
  For ideal gases, phi = 1.

------------------
End of simulation.
------------------

------------------------------------
Reading input data for simulation 5.
------------------------------------

	USE SOLUTION 1
	 EQUILIBRIUM_PHASES 1
	 CO2(g)    -3.84 100
	 Hydroxyapatite 0 10 dissolve_only
	 Fluorapatite 0 10 dissolve_only
	 Calcite 0 10 dissolve_only
	 REACTION_TEMPERATURE 1
	 50
	 END
-----------------------------------------
Beginning of batch-reaction calculations.
-----------------------------------------

Reaction step 1.

Using solution 1.	
Using pure phase assemblage 1.	
Using temperature 1.	

-------------------------------Phase assemblage--------------------------------

                                                      Moles in assemblage
Phase               SI  log IAP  log K(T, P)   Initial       Final       Delta

CO2(g)           -3.84    -5.55     -1.71    1.000e+02   1.000e+02  -2.319e-04
Calcite           0.00    -8.66     -8.66    1.000e+01   1.000e+01  -2.649e-04
Fluorapatite      0.00   -60.29    -60.29    1.000e+01   1.000e+01  -3.476e-11
Hydroxyapatite    0.00    -5.47     -5.47    1.000e+01   1.000e+01  -4.490e-08

-----------------------------Solution composition------------------------------

	Elements           Molality       Moles

	C                 4.968e-04   4.968e-04
	Ca                2.651e-04   2.651e-04
	F                 1.348e-10   1.348e-10
	P                 1.351e-07   1.351e-07

----------------------------Description of solution----------------------------

                                       pH  =   8.498      Charge balance
                                       pe  =  -2.817      Adjusted to redox equilibrium
      Specific Conductance (µS/cm,  50°C)  = 85
                          Density (g/cm³)  =   0.98806
                               Volume (L)  =   1.01212
                        Activity of water  =   1.000
                 Ionic strength (mol/kgw)  =   7.816e-04
                       Mass of water (kg)  =   1.000e+00
                 Total alkalinity (eq/kg)  =   5.301e-04
                       Total CO2 (mol/kg)  =   4.968e-04
                         Temperature (°C)  =  50.00
                  Electrical balance (eq)  =  -1.217e-09
 Percent error, 100*(Cat-|An|)/(Cat+|An|)  =  -0.00
                               Iterations  =  16
                                  Total H  = 1.110124e+02
                                  Total O  = 5.550748e+01

----------------------------Distribution of species----------------------------

                                               Log       Log       Log    mole V
   Species          Molality    Activity  Molality  Activity     Gamma   cm³/mol

   OH-             1.783e-05   1.724e-05    -4.749    -4.763    -0.014     -3.80
   H+              3.277e-09   3.175e-09    -8.485    -8.498    -0.014      0.00
   H2O             5.551e+01   1.000e+00     1.744    -0.000     0.000     18.23
C(-4)         1.415e-30
   CH4             1.415e-30   1.415e-30   -29.849   -29.849     0.000     37.33
C(4)          4.968e-04
   HCO3-           4.741e-04   4.588e-04    -3.324    -3.338    -0.014     25.70
   CO3-2           1.103e-05   9.673e-06    -4.958    -5.014    -0.057     -5.32
   CaCO3           7.086e-06   7.087e-06    -5.150    -5.150     0.000    -14.53
   CO2             2.813e-06   2.813e-06    -5.551    -5.551     0.000     35.66
   CaHCO3+         1.717e-06   1.662e-06    -5.765    -5.779    -0.014     10.29
   (CO2)2          2.970e-13   2.971e-13   -12.527   -12.527     0.000     71.32
Ca            2.651e-04
   Ca+2            2.562e-04   2.247e-04    -3.591    -3.648    -0.057    -18.23
   CaCO3           7.086e-06   7.087e-06    -5.150    -5.150     0.000    -14.53
   CaHCO3+         1.717e-06   1.662e-06    -5.765    -5.779    -0.014     10.29
   CaPO4-          1.901e-08   1.839e-08    -7.721    -7.735    -0.014     (0)  
   CaHPO4          1.598e-08   1.598e-08    -7.797    -7.796     0.000     (0)  
   CaOH+           1.214e-08   1.175e-08    -7.916    -7.930    -0.014     (0)  
   CaH2PO4+        3.508e-11   3.395e-11   -10.455   -10.469    -0.014     (0)  
F             1.348e-10
   F-              1.348e-10   1.303e-10    -9.870    -9.885    -0.014     -1.52
   HF              9.943e-16   9.945e-16   -15.002   -15.002     0.000     13.33
   HF2-            5.812e-25   5.622e-25   -24.236   -24.250    -0.014     22.61
H(0)          4.889e-15
   H2              2.445e-15   2.445e-15   -14.612   -14.612     0.000     28.59
O(0)          0.000e+00
   O2              0.000e+00   0.000e+00   -55.713   -55.713     0.000     31.92
P             1.351e-07
   HPO4-2          9.613e-08   8.429e-08    -7.017    -7.074    -0.057      5.42
   CaPO4-          1.901e-08   1.839e-08    -7.721    -7.735    -0.014     (0)  
   CaHPO4          1.598e-08   1.598e-08    -7.797    -7.796     0.000     (0)  
   H2PO4-          3.913e-09   3.787e-09    -8.407    -8.422    -0.014     32.51
   CaH2PO4+        3.508e-11   3.395e-11   -10.455   -10.469    -0.014     (0)  
   PO4-3           2.558e-11   1.898e-11   -10.592   -10.722    -0.130    -26.07
   H3PO4           2.330e-15   2.330e-15   -14.633   -14.633     0.000     48.41

------------------------------Saturation indices-------------------------------

  Phase               SI** log IAP   log K(323 K,   1 atm)

  Aragonite        -0.13     -8.66   -8.54  CaCO3
  Calcite           0.00     -8.66   -8.66  CaCO3
  CH4(g)          -26.89    -29.85   -2.96  CH4
  CO2(g)           -3.84     -5.55   -1.71  CO2	 Pressure   0.0 atm, phi 1.000
  Fluorapatite      0.00    -60.29  -60.29  Ca5(F)(PO4)3
  Fluorite        -13.05    -23.42  -10.37  CaF2
  H2(g)           -11.48    -14.61   -3.14  H2
  H2O(g)           -0.92     -0.00    0.92  H2O
  Hydroxyapatite    0.00     -5.47   -5.47  Ca5(PO4)3OH
  Hydroxylapatite   3.67    -55.17  -58.84  Ca5(OH)(PO4)3
  O2(g)           -52.68    -55.71   -3.03  O2

**For a gas, SI = log10(fugacity). Fugacity = pressure * phi / 1 atm.
  For ideal gases, phi = 1.

------------------
End of simulation.
------------------

------------------------------------
Reading input data for simulation 6.
------------------------------------

	USE SOLUTION 1
	 EQUILIBRIUM_PHASES 1
	 CO2(g)    -3.8 100
	 Hydroxyapatite 0 10 dissolve_only
	 Fluorapatite 0 10 dissolve_only
	 Calcite 0 10 dissolve_only
	 REACTION_TEMPERATURE 1
	 50
	 END
-----------------------------------------
Beginning of batch-reaction calculations.
-----------------------------------------

Reaction step 1.

Using solution 1.	
Using pure phase assemblage 1.	
Using temperature 1.	

-------------------------------Phase assemblage--------------------------------

                                                      Moles in assemblage
Phase               SI  log IAP  log K(T, P)   Initial       Final       Delta

CO2(g)           -3.80    -5.51     -1.71    1.000e+02   1.000e+02  -2.408e-04
Calcite           0.00    -8.66     -8.66    1.000e+01   1.000e+01  -2.722e-04
Fluorapatite      0.00   -60.29    -60.29    1.000e+01   1.000e+01  -2.708e-11
Hydroxyapatite    0.00    -5.47     -5.47    1.000e+01   1.000e+01  -4.660e-08

-----------------------------Solution composition------------------------------

	Elements           Molality       Moles

	C                 5.130e-04   5.130e-04
	Ca                2.724e-04   2.724e-04
	F                 1.271e-10   1.271e-10
	P                 1.402e-07   1.402e-07

----------------------------Description of solution----------------------------

                                       pH  =   8.473      Charge balance
                                       pe  =  -2.792      Adjusted to redox equilibrium
      Specific Conductance (µS/cm,  50°C)  = 87
                          Density (g/cm³)  =   0.98806
                               Volume (L)  =   1.01212
                        Activity of water  =   1.000
                 Ionic strength (mol/kgw)  =   8.031e-04
                       Mass of water (kg)  =   1.000e+00
                 Total alkalinity (eq/kg)  =   5.447e-04
                       Total CO2 (mol/kg)  =   5.130e-04
                         Temperature (°C)  =  50.00
                  Electrical balance (eq)  =  -1.217e-09
 Percent error, 100*(Cat-|An|)/(Cat+|An|)  =  -0.00
                               Iterations  =  16
                                  Total H  = 1.110124e+02
                                  Total O  = 5.550752e+01

----------------------------Distribution of species----------------------------

                                               Log       Log       Log    mole V
   Species          Molality    Activity  Molality  Activity     Gamma   cm³/mol

   OH-             1.681e-05   1.625e-05    -4.774    -4.789    -0.015     -3.80
   H+              3.478e-09   3.368e-09    -8.459    -8.473    -0.014      0.00
   H2O             5.551e+01   1.000e+00     1.744    -0.000     0.000     18.23
C(-4)         1.550e-30
   CH4             1.550e-30   1.551e-30   -29.810   -29.810     0.000     37.33
C(4)          5.130e-04
   HCO3-           4.902e-04   4.742e-04    -3.310    -3.324    -0.014     25.70
   CO3-2           1.076e-05   9.424e-06    -4.968    -5.026    -0.058     -5.31
   CaCO3           7.086e-06   7.087e-06    -5.150    -5.150     0.000    -14.53
   CO2             3.084e-06   3.084e-06    -5.511    -5.511     0.000     35.66
   CaHCO3+         1.823e-06   1.764e-06    -5.739    -5.754    -0.014     10.29
   (CO2)2          3.571e-13   3.572e-13   -12.447   -12.447     0.000     71.32
Ca            2.724e-04
   Ca+2            2.635e-04   2.307e-04    -3.579    -3.637    -0.058    -18.22
   CaCO3           7.086e-06   7.087e-06    -5.150    -5.150     0.000    -14.53
   CaHCO3+         1.823e-06   1.764e-06    -5.739    -5.754    -0.014     10.29
   CaPO4-          1.906e-08   1.844e-08    -7.720    -7.734    -0.014     (0)  
   CaHPO4          1.699e-08   1.699e-08    -7.770    -7.770     0.000     (0)  
   CaOH+           1.176e-08   1.137e-08    -7.930    -7.944    -0.015     (0)  
   CaH2PO4+        3.959e-11   3.829e-11   -10.402   -10.417    -0.014     (0)  
F             1.271e-10
   F-              1.271e-10   1.229e-10    -9.896    -9.911    -0.015     -1.52
   HF              9.943e-16   9.945e-16   -15.002   -15.002     0.000     13.33
   HF2-            5.481e-25   5.299e-25   -24.261   -24.276    -0.015     22.61
H(0)          4.888e-15
   H2              2.444e-15   2.445e-15   -14.612   -14.612     0.000     28.59
O(0)          0.000e+00
   O2              0.000e+00   0.000e+00   -55.713   -55.712     0.000     31.92
P             1.402e-07
   HPO4-2          9.976e-08   8.731e-08    -7.001    -7.059    -0.058      5.42
   CaPO4-          1.906e-08   1.844e-08    -7.720    -7.734    -0.014     (0)  
   CaHPO4          1.699e-08   1.699e-08    -7.770    -7.770     0.000     (0)  
   H2PO4-          4.303e-09   4.162e-09    -8.366    -8.381    -0.014     32.51
   CaH2PO4+        3.959e-11   3.829e-11   -10.402   -10.417    -0.014     (0)  
   PO4-3           2.508e-11   1.853e-11   -10.601   -10.732    -0.131    -26.06
   H3PO4           2.717e-15   2.717e-15   -14.566   -14.566     0.000     48.41

------------------------------Saturation indices-------------------------------

  Phase               SI** log IAP   log K(323 K,   1 atm)

  Aragonite        -0.13     -8.66   -8.54  CaCO3
  Calcite           0.00     -8.66   -8.66  CaCO3
  CH4(g)          -26.85    -29.81   -2.96  CH4
  CO2(g)           -3.80     -5.51   -1.71  CO2	 Pressure   0.0 atm, phi 1.000
  Fluorapatite      0.00    -60.29  -60.29  Ca5(F)(PO4)3
  Fluorite        -13.09    -23.46  -10.37  CaF2
  H2(g)           -11.48    -14.61   -3.14  H2
  H2O(g)           -0.92     -0.00    0.92  H2O
  Hydroxyapatite    0.00     -5.47   -5.47  Ca5(PO4)3OH
  Hydroxylapatite   3.67    -55.17  -58.84  Ca5(OH)(PO4)3
  O2(g)           -52.68    -55.71   -3.03  O2

**For a gas, SI = log10(fugacity). Fugacity = pressure * phi / 1 atm.
  For ideal gases, phi = 1.

------------------
End of simulation.
------------------

------------------------------------
Reading input data for simulation 7.
------------------------------------

	USE SOLUTION 1
	 EQUILIBRIUM_PHASES 1
	 CO2(g)    -3.76 100
	 Hydroxyapatite 0 10 dissolve_only
	 Fluorapatite 0 10 dissolve_only
	 Calcite 0 10 dissolve_only
	 REACTION_TEMPERATURE 1
	 50
	 END
-----------------------------------------
Beginning of batch-reaction calculations.
-----------------------------------------

Reaction step 1.

Using solution 1.	
Using pure phase assemblage 1.	
Using temperature 1.	

-------------------------------Phase assemblage--------------------------------

                                                      Moles in assemblage
Phase               SI  log IAP  log K(T, P)   Initial       Final       Delta

CO2(g)           -3.76    -5.47     -1.71    1.000e+02   1.000e+02  -2.499e-04
Calcite           0.00    -8.66     -8.66    1.000e+01   1.000e+01  -2.798e-04
Fluorapatite     -0.00   -60.29    -60.29    1.000e+01   1.000e+01  -1.983e-11
Hydroxyapatite    0.00    -5.47     -5.47    1.000e+01   1.000e+01  -4.837e-08

-----------------------------Solution composition------------------------------

	Elements           Molality       Moles

	C                 5.298e-04   5.297e-04
	Ca                2.801e-04   2.801e-04
	F                 1.198e-10   1.198e-10
	P                 1.455e-07   1.455e-07

----------------------------Description of solution----------------------------

                                       pH  =   8.447      Charge balance
                                       pe  =  -2.766      Adjusted to redox equilibrium
      Specific Conductance (µS/cm,  50°C)  = 89
                          Density (g/cm³)  =   0.98806
                               Volume (L)  =   1.01212
                        Activity of water  =   1.000
                 Ionic strength (mol/kgw)  =   8.255e-04
                       Mass of water (kg)  =   1.000e+00
                 Total alkalinity (eq/kg)  =   5.600e-04
                       Total CO2 (mol/kg)  =   5.298e-04
                         Temperature (°C)  =  50.00
                  Electrical balance (eq)  =  -1.217e-09
 Percent error, 100*(Cat-|An|)/(Cat+|An|)  =  -0.00
                               Iterations  =  16
                                  Total H  = 1.110124e+02
                                  Total O  = 5.550756e+01

----------------------------Distribution of species----------------------------

                                               Log       Log       Log    mole V
   Species          Molality    Activity  Molality  Activity     Gamma   cm³/mol

   OH-             1.585e-05   1.532e-05    -4.800    -4.815    -0.015     -3.80
   H+              3.692e-09   3.573e-09    -8.433    -8.447    -0.014      0.00
   H2O             5.551e+01   1.000e+00     1.744    -0.000     0.000     18.23
C(-4)         1.700e-30
   CH4             1.700e-30   1.701e-30   -29.769   -29.769     0.000     37.33
C(4)          5.298e-04
   HCO3-           5.068e-04   4.901e-04    -3.295    -3.310    -0.015     25.70
   CO3-2           1.050e-05   9.179e-06    -4.979    -5.037    -0.058     -5.31
   CaCO3           7.086e-06   7.087e-06    -5.150    -5.150     0.000    -14.53
   CO2             3.381e-06   3.382e-06    -5.471    -5.471     0.000     35.66
   CaHCO3+         1.935e-06   1.871e-06    -5.713    -5.728    -0.015     10.29
   (CO2)2          4.293e-13   4.294e-13   -12.367   -12.367     0.000     71.32
Ca            2.801e-04
   Ca+2            2.710e-04   2.368e-04    -3.567    -3.626    -0.058    -18.22
   CaCO3           7.086e-06   7.087e-06    -5.150    -5.150     0.000    -14.53
   CaHCO3+         1.935e-06   1.871e-06    -5.713    -5.728    -0.015     10.29
   CaPO4-          1.911e-08   1.848e-08    -7.719    -7.733    -0.015     (0)  
   CaHPO4          1.806e-08   1.807e-08    -7.743    -7.743     0.000     (0)  
   CaOH+           1.138e-08   1.100e-08    -7.944    -7.959    -0.015     (0)  
   CaH2PO4+        4.468e-11   4.320e-11   -10.350   -10.364    -0.015     (0)  
F             1.198e-10
   F-              1.198e-10   1.158e-10    -9.921    -9.936    -0.015     -1.52
   HF              9.943e-16   9.945e-16   -15.002   -15.002     0.000     13.33
   HF2-            5.168e-25   4.995e-25   -24.287   -24.302    -0.015     22.61
H(0)          4.889e-15
   H2              2.444e-15   2.445e-15   -14.612   -14.612     0.000     28.59
O(0)          0.000e+00
   O2              0.000e+00   0.000e+00   -55.713   -55.713     0.000     31.92
P             1.455e-07
   HPO4-2          1.035e-07   9.043e-08    -6.985    -7.044    -0.059      5.42
   CaPO4-          1.911e-08   1.848e-08    -7.719    -7.733    -0.015     (0)  
   CaHPO4          1.806e-08   1.807e-08    -7.743    -7.743     0.000     (0)  
   H2PO4-          4.730e-09   4.574e-09    -8.325    -8.340    -0.015     32.52
   CaH2PO4+        4.468e-11   4.320e-11   -10.350   -10.364    -0.015     (0)  
   PO4-3           2.458e-11   1.809e-11   -10.609   -10.743    -0.133    -26.06
   H3PO4           3.167e-15   3.168e-15   -14.499   -14.499     0.000     48.41

------------------------------Saturation indices-------------------------------

  Phase               SI** log IAP   log K(323 K,   1 atm)

  Aragonite        -0.13     -8.66   -8.54  CaCO3
  Calcite           0.00     -8.66   -8.66  CaCO3
  CH4(g)          -26.81    -29.77   -2.96  CH4
  CO2(g)           -3.76     -5.47   -1.71  CO2	 Pressure   0.0 atm, phi 1.000
  Fluorapatite     -0.00    -60.29  -60.29  Ca5(F)(PO4)3
  Fluorite        -13.13    -23.50  -10.37  CaF2
  H2(g)           -11.48    -14.61   -3.14  H2
  H2O(g)           -0.92     -0.00    0.92  H2O
  Hydroxyapatite    0.00     -5.47   -5.47  Ca5(PO4)3OH
  Hydroxylapatite   3.67    -55.17  -58.84  Ca5(OH)(PO4)3
  O2(g)           -52.68    -55.71   -3.03  O2

**For a gas, SI = log10(fugacity). Fugacity = pressure * phi / 1 atm.
  For ideal gases, phi = 1.

------------------
End of simulation.
------------------

------------------------------------
Reading input data for simulation 8.
------------------------------------

	USE SOLUTION 1
	 EQUILIBRIUM_PHASES 1
	 CO2(g)    -3.72 100
	 Hydroxyapatite 0 10 dissolve_only
	 Fluorapatite 0 10 dissolve_only
	 Calcite 0 10 dissolve_only
	 REACTION_TEMPERATURE 1
	 50
	 END
-----------------------------------------
Beginning of batch-reaction calculations.
-----------------------------------------

Reaction step 1.

Using solution 1.	
Using pure phase assemblage 1.	
Using temperature 1.	

-------------------------------Phase assemblage--------------------------------

                                                      Moles in assemblage
Phase               SI  log IAP  log K(T, P)   Initial       Final       Delta

CO2(g)           -3.72    -5.43     -1.71    1.000e+02   1.000e+02  -2.593e-04
Calcite           0.00    -8.66     -8.66    1.000e+01   1.000e+01  -2.877e-04
Fluorapatite      0.00   -60.29    -60.29    1.000e+01   1.000e+01  -1.298e-11
Hydroxyapatite    0.00    -5.47     -5.47    1.000e+01   1.000e+01  -5.022e-08

-----------------------------Solution composition------------------------------

	Elements           Molality       Moles

	C                 5.471e-04   5.471e-04
	Ca                2.880e-04   2.880e-04
	F                 1.130e-10   1.130e-10
	P                 1.510e-07   1.510e-07

----------------------------Description of solution----------------------------

                                       pH  =   8.421      Charge balance
                                       pe  =  -2.740      Adjusted to redox equilibrium
      Specific Conductance (µS/cm,  50°C)  = 91
                          Density (g/cm³)  =   0.98807
                               Volume (L)  =   1.01212
                        Activity of water  =   1.000
                 Ionic strength (mol/kgw)  =   8.488e-04
                       Mass of water (kg)  =   1.000e+00
                 Total alkalinity (eq/kg)  =   5.758e-04
                       Total CO2 (mol/kg)  =   5.471e-04
                         Temperature (°C)  =  50.00
                  Electrical balance (eq)  =  -1.217e-09
 Percent error, 100*(Cat-|An|)/(Cat+|An|)  =  -0.00
                               Iterations  =  16
                                  Total H  = 1.110124e+02
                                  Total O  = 5.550760e+01

----------------------------Distribution of species----------------------------

                                               Log       Log       Log    mole V
   Species          Molality    Activity  Molality  Activity     Gamma   cm³/mol

   OH-             1.494e-05   1.443e-05    -4.826    -4.841    -0.015     -3.80
   H+              3.919e-09   3.792e-09    -8.407    -8.421    -0.014      0.00
   H2O             5.551e+01   1.000e+00     1.744    -0.000     0.000     18.23
C(-4)         1.864e-30
   CH4             1.864e-30   1.865e-30   -29.729   -29.729     0.000     37.33
C(4)          5.471e-04
   HCO3-           5.240e-04   5.064e-04    -3.281    -3.295    -0.015     25.70
   CO3-2           1.024e-05   8.938e-06    -4.990    -5.049    -0.059     -5.31
   CaCO3           7.086e-06   7.087e-06    -5.150    -5.150     0.000    -14.53
   CO2             3.708e-06   3.708e-06    -5.431    -5.431     0.000     35.66
   CaHCO3+         2.054e-06   1.986e-06    -5.687    -5.702    -0.015     10.29
   (CO2)2          5.161e-13   5.162e-13   -12.287   -12.287     0.000     71.32
Ca            2.880e-04
   Ca+2            2.788e-04   2.432e-04    -3.555    -3.614    -0.059    -18.22
   CaCO3           7.086e-06   7.087e-06    -5.150    -5.150     0.000    -14.53
   CaHCO3+         2.054e-06   1.986e-06    -5.687    -5.702    -0.015     10.29
   CaHPO4          1.921e-08   1.921e-08    -7.717    -7.716     0.000     (0)  
   CaPO4-          1.916e-08   1.851e-08    -7.718    -7.732    -0.015     (0)  
   CaOH+           1.102e-08   1.064e-08    -7.958    -7.973    -0.015     (0)  
   CaH2PO4+        5.044e-11   4.875e-11   -10.297   -10.312    -0.015     (0)  
F             1.130e-10
   F-              1.130e-10   1.091e-10    -9.947    -9.962    -0.015     -1.51
   HF              9.943e-16   9.945e-16   -15.002   -15.002     0.000     13.33
   HF2-            4.872e-25   4.707e-25   -24.312   -24.327    -0.015     22.61
H(0)          4.889e-15
   H2              2.444e-15   2.445e-15   -14.612   -14.612     0.000     28.59
O(0)          0.000e+00
   O2              0.000e+00   0.000e+00   -55.713   -55.713     0.000     31.92
P             1.510e-07
   HPO4-2          1.074e-07   9.363e-08    -6.969    -7.029    -0.059      5.42
   CaHPO4          1.921e-08   1.921e-08    -7.717    -7.716     0.000     (0)  
   CaPO4-          1.916e-08   1.851e-08    -7.718    -7.732    -0.015     (0)  
   H2PO4-          5.199e-09   5.025e-09    -8.284    -8.299    -0.015     32.52
   CaH2PO4+        5.044e-11   4.875e-11   -10.297   -10.312    -0.015     (0)  
   PO4-3           2.408e-11   1.765e-11   -10.618   -10.753    -0.135    -26.05
   H3PO4           3.693e-15   3.693e-15   -14.433   -14.433     0.000     48.41

------------------------------Saturation indices-------------------------------

  Phase               SI** log IAP   log K(323 K,   1 atm)

  Aragonite        -0.13     -8.66   -8.54  CaCO3
  Calcite           0.00     -8.66   -8.66  CaCO3
  CH4(g)          -26.77    -29.73   -2.96  CH4
  CO2(g)           -3.72     -5.43   -1.71  CO2	 Pressure   0.0 atm, phi 1.000
  Fluorapatite      0.00    -60.29  -60.29  Ca5(F)(PO4)3
  Fluorite        -13.17    -23.54  -10.37  CaF2
  H2(g)           -11.48    -14.61   -3.14  H2
  H2O(g)           -0.92     -0.00    0.92  H2O
  Hydroxyapatite    0.00     -5.47   -5.47  Ca5(PO4)3OH
  Hydroxylapatite   3.67    -55.17  -58.84  Ca5(OH)(PO4)3
  O2(g)           -52.68    -55.71   -3.03  O2

**For a gas, SI = log10(fugacity). Fugacity = pressure * phi / 1 atm.
  For ideal gases, phi = 1.

------------------
End of simulation.
------------------

------------------------------------
Reading input data for simulation 9.
------------------------------------

	USE SOLUTION 1
	 EQUILIBRIUM_PHASES 1
	 CO2(g)    -3.68 100
	 Hydroxyapatite 0 10 dissolve_only
	 Fluorapatite 0 10 dissolve_only
	 Calcite 0 10 dissolve_only
	 REACTION_TEMPERATURE 1
	 50
	 END
-----------------------------------------
Beginning of batch-reaction calculations.
-----------------------------------------

Reaction step 1.

Using solution 1.	
Using pure phase assemblage 1.	
Using temperature 1.	

-------------------------------Phase assemblage--------------------------------

                                                      Moles in assemblage
Phase               SI  log IAP  log K(T, P)   Initial       Final       Delta

CO2(g)           -3.68    -5.39     -1.71    1.000e+02   1.000e+02  -2.690e-04
Calcite           0.00    -8.66     -8.66    1.000e+01   1.000e+01  -2.959e-04
Fluorapatite      0.00   -60.29    -60.29    1.000e+01   1.000e+01  -6.510e-12
Hydroxyapatite    0.00    -5.47     -5.47    1.000e+01   1.000e+01  -5.215e-08

-----------------------------Solution composition------------------------------

	Elements           Molality       Moles

	C                 5.649e-04   5.649e-04
	Ca                2.962e-04   2.962e-04
	F                 1.065e-10   1.065e-10
	P                 1.568e-07   1.568e-07

----------------------------Description of solution----------------------------

                                       pH  =   8.395      Charge balance
                                       pe  =  -2.714      Adjusted to redox equilibrium
      Specific Conductance (µS/cm,  50°C)  = 94
                          Density (g/cm³)  =   0.98807
                               Volume (L)  =   1.01212
                        Activity of water  =   1.000
                 Ionic strength (mol/kgw)  =   8.729e-04
                       Mass of water (kg)  =   1.000e+00
                 Total alkalinity (eq/kg)  =   5.922e-04
                       Total CO2 (mol/kg)  =   5.649e-04
                         Temperature (°C)  =  50.00
                  Electrical balance (eq)  =  -1.217e-09
 Percent error, 100*(Cat-|An|)/(Cat+|An|)  =  -0.00
                               Iterations  =  16
                                  Total H  = 1.110124e+02
                                  Total O  = 5.550764e+01

----------------------------Distribution of species----------------------------

                                               Log       Log       Log    mole V
   Species          Molality    Activity  Molality  Activity     Gamma   cm³/mol

   OH-             1.409e-05   1.360e-05    -4.851    -4.866    -0.015     -3.80
   H+              4.161e-09   4.024e-09    -8.381    -8.395    -0.015      0.00
   H2O             5.551e+01   1.000e+00     1.744    -0.000     0.000     18.23
C(-4)         2.045e-30
   CH4             2.045e-30   2.045e-30   -29.689   -29.689     0.000     37.33
C(4)          5.649e-04
   HCO3-           5.416e-04   5.232e-04    -3.266    -3.281    -0.015     25.70
   CO3-2           9.991e-06   8.702e-06    -5.000    -5.060    -0.060     -5.31
   CaCO3           7.086e-06   7.087e-06    -5.150    -5.150     0.000    -14.53
   CO2             4.065e-06   4.066e-06    -5.391    -5.391     0.000     35.66
   CaHCO3+         2.181e-06   2.107e-06    -5.661    -5.676    -0.015     10.30
   (CO2)2          6.205e-13   6.207e-13   -12.207   -12.207     0.000     71.32
Ca            2.962e-04
   Ca+2            2.869e-04   2.498e-04    -3.542    -3.602    -0.060    -18.22
   CaCO3           7.086e-06   7.087e-06    -5.150    -5.150     0.000    -14.53
   CaHCO3+         2.181e-06   2.107e-06    -5.661    -5.676    -0.015     10.30
   CaHPO4          2.042e-08   2.043e-08    -7.690    -7.690     0.000     (0)  
   CaPO4-          1.920e-08   1.855e-08    -7.717    -7.732    -0.015     (0)  
   CaOH+           1.067e-08   1.030e-08    -7.972    -7.987    -0.015     (0)  
   CaH2PO4+        5.694e-11   5.501e-11   -10.245   -10.260    -0.015     (0)  
F             1.065e-10
   F-              1.065e-10   1.028e-10    -9.973    -9.988    -0.015     -1.51
   HF              9.943e-16   9.945e-16   -15.002   -15.002     0.000     13.33
   HF2-            4.593e-25   4.435e-25   -24.338   -24.353    -0.015     22.61
H(0)          4.889e-15
   H2              2.444e-15   2.445e-15   -14.612   -14.612     0.000     28.59
O(0)          0.000e+00
   O2              0.000e+00   0.000e+00   -55.713   -55.713     0.000     31.92
P             1.568e-07
   HPO4-2          1.114e-07   9.693e-08    -6.953    -7.014    -0.060      5.42
   CaHPO4          2.042e-08   2.043e-08    -7.690    -7.690     0.000     (0)  
   CaPO4-          1.920e-08   1.855e-08    -7.717    -7.732    -0.015     (0)  
   H2PO4-          5.715e-09   5.521e-09    -8.243    -8.258    -0.015     32.52
   CaH2PO4+        5.694e-11   5.501e-11   -10.245   -10.260    -0.015     (0)  
   PO4-3           2.359e-11   1.722e-11   -10.627   -10.764    -0.137    -26.05
   H3PO4           4.305e-15   4.306e-15   -14.366   -14.366     0.000     48.41

------------------------------Saturation indices-------------------------------

  Phase               SI** log IAP   log K(323 K,   1 atm)

  Aragonite        -0.13     -8.66   -8.54  CaCO3
  Calcite           0.00     -8.66   -8.66  CaCO3
  CH4(g)          -26.73    -29.69   -2.96  CH4
  CO2(g)           -3.68     -5.39   -1.71  CO2	 Pressure   0.0 atm, phi 1.000
  Fluorapatite      0.00    -60.29  -60.29  Ca5(F)(PO4)3
  Fluorite        -13.21    -23.58  -10.37  CaF2
  H2(g)           -11.48    -14.61   -3.14  H2
  H2O(g)           -0.92     -0.00    0.92  H2O
  Hydroxyapatite    0.00     -5.47   -5.47  Ca5(PO4)3OH
  Hydroxylapatite   3.67    -55.17  -58.84  Ca5(OH)(PO4)3
  O2(g)           -52.68    -55.71   -3.03  O2

**For a gas, SI = log10(fugacity). Fugacity = pressure * phi / 1 atm.
  For ideal gases, phi = 1.

------------------
End of simulation.
------------------

-------------------------------------
Reading input data for simulation 10.
-------------------------------------

	USE SOLUTION 1
	 EQUILIBRIUM_PHASES 1
	 CO2(g)    -3.64 100
	 Hydroxyapatite 0 10 dissolve_only
	 Fluorapatite 0 10 dissolve_only
	 Calcite 0 10 dissolve_only
	 REACTION_TEMPERATURE 1
	 50
	 END
-----------------------------------------
Beginning of batch-reaction calculations.
-----------------------------------------

Reaction step 1.

Using solution 1.	
Using pure phase assemblage 1.	
Using temperature 1.	

-------------------------------Phase assemblage--------------------------------

                                                      Moles in assemblage
Phase               SI  log IAP  log K(T, P)   Initial       Final       Delta

CO2(g)           -3.64    -5.35     -1.71    1.000e+02   1.000e+02  -2.790e-04
Calcite           0.00    -8.66     -8.66    1.000e+01   1.000e+01  -3.044e-04
Fluorapatite      0.00   -60.29    -60.29    1.000e+01   1.000e+01  -4.032e-13
Hydroxyapatite    0.00    -5.47     -5.47    1.000e+01   1.000e+01  -5.417e-08

-----------------------------Solution composition------------------------------

	Elements           Molality       Moles

	C                 5.834e-04   5.834e-04
	Ca                3.047e-04   3.047e-04
	F                 1.004e-10   1.004e-10
	P                 1.628e-07   1.628e-07

----------------------------Description of solution----------------------------

                                       pH  =   8.369      Charge balance
                                       pe  =  -2.688      Adjusted to redox equilibrium
      Specific Conductance (µS/cm,  50°C)  = 96
                          Density (g/cm³)  =   0.98807
                               Volume (L)  =   1.01212
                        Activity of water  =   1.000
                 Ionic strength (mol/kgw)  =   8.980e-04
                       Mass of water (kg)  =   1.000e+00
                 Total alkalinity (eq/kg)  =   6.093e-04
                       Total CO2 (mol/kg)  =   5.834e-04
                         Temperature (°C)  =  50.00
                  Electrical balance (eq)  =  -1.217e-09
 Percent error, 100*(Cat-|An|)/(Cat+|An|)  =  -0.00
                               Iterations  =  16
                                  Total H  = 1.110124e+02
                                  Total O  = 5.550769e+01

----------------------------Distribution of species----------------------------

                                               Log       Log       Log    mole V
   Species          Molality    Activity  Molality  Activity     Gamma   cm³/mol

   OH-             1.328e-05   1.282e-05    -4.877    -4.892    -0.015     -3.80
   H+              4.418e-09   4.271e-09    -8.355    -8.369    -0.015      0.00
   H2O             5.551e+01   1.000e+00     1.744    -0.000     0.000     18.23
C(-4)         2.241e-30
   CH4             2.241e-30   2.241e-30   -29.650   -29.650     0.000     37.33
C(4)          5.834e-04
   HCO3-           5.598e-04   5.406e-04    -3.252    -3.267    -0.015     25.70
   CO3-2           9.744e-06   8.471e-06    -5.011    -5.072    -0.061     -5.31
   CaCO3           7.086e-06   7.087e-06    -5.150    -5.150     0.000    -14.53
   CO2             4.457e-06   4.458e-06    -5.351    -5.351     0.000     35.66
   CaHCO3+         2.316e-06   2.236e-06    -5.635    -5.650    -0.015     10.30
   (CO2)2          7.461e-13   7.462e-13   -12.127   -12.127     0.000     71.32
Ca            3.047e-04
   Ca+2            2.953e-04   2.566e-04    -3.530    -3.591    -0.061    -18.22
   CaCO3           7.086e-06   7.087e-06    -5.150    -5.150     0.000    -14.53
   CaHCO3+         2.316e-06   2.236e-06    -5.635    -5.650    -0.015     10.30
   CaHPO4          2.172e-08   2.172e-08    -7.663    -7.663     0.000     (0)  
   CaPO4-          1.925e-08   1.859e-08    -7.716    -7.731    -0.015     (0)  
   CaOH+           1.033e-08   9.972e-09    -7.986    -8.001    -0.015     (0)  
   CaH2PO4+        6.429e-11   6.208e-11   -10.192   -10.207    -0.015     (0)  
F             1.004e-10
   F-              1.004e-10   9.689e-11    -9.998   -10.014    -0.015     -1.51
   HF              9.943e-16   9.945e-16   -15.002   -15.002     0.000     13.33
   HF2-            4.330e-25   4.179e-25   -24.364   -24.379    -0.015     22.62
H(0)          4.888e-15
   H2              2.444e-15   2.444e-15   -14.612   -14.612     0.000     28.59
O(0)          0.000e+00
   O2              0.000e+00   0.000e+00   -55.713   -55.712     0.000     31.92
P             1.628e-07
   HPO4-2          1.155e-07   1.003e-07    -6.938    -6.999    -0.061      5.42
   CaHPO4          2.172e-08   2.172e-08    -7.663    -7.663     0.000     (0)  
   CaPO4-          1.925e-08   1.859e-08    -7.716    -7.731    -0.015     (0)  
   H2PO4-          6.281e-09   6.065e-09    -8.202    -8.217    -0.015     32.52
   CaH2PO4+        6.429e-11   6.208e-11   -10.192   -10.207    -0.015     (0)  
   PO4-3           2.311e-11   1.679e-11   -10.636   -10.775    -0.139    -26.04
   H3PO4           5.020e-15   5.021e-15   -14.299   -14.299     0.000     48.41

------------------------------Saturation indices-------------------------------

  Phase               SI** log IAP   log K(323 K,   1 atm)

  Aragonite        -0.13     -8.66   -8.54  CaCO3
  Calcite           0.00     -8.66   -8.66  CaCO3
  CH4(g)          -26.69    -29.65   -2.96  CH4
  CO2(g)           -3.64     -5.35   -1.71  CO2	 Pressure   0.0 atm, phi 1.000
  Fluorapatite      0.00    -60.29  -60.29  Ca5(F)(PO4)3
  Fluorite        -13.25    -23.62  -10.37  CaF2
  H2(g)           -11.48    -14.61   -3.14  H2
  H2O(g)           -0.92     -0.00    0.92  H2O
  Hydroxyapatite    0.00     -5.47   -5.47  Ca5(PO4)3OH
  Hydroxylapatite   3.67    -55.17  -58.84  Ca5(OH)(PO4)3
  O2(g)           -52.68    -55.71   -3.03  O2

**For a gas, SI = log10(fugacity). Fugacity = pressure * phi / 1 atm.
  For ideal gases, phi = 1.

------------------
End of simulation.
------------------

-------------------------------------
Reading input data for simulation 11.
-------------------------------------

	USE SOLUTION 1
	 EQUILIBRIUM_PHASES 1
	 CO2(g)    -3.6 100
	 Hydroxyapatite 0 10 dissolve_only
	 Fluorapatite 0 10 dissolve_only
	 Calcite 0 10 dissolve_only
	 REACTION_TEMPERATURE 1
	 50
	 END
-----------------------------------------
Beginning of batch-reaction calculations.
-----------------------------------------

Reaction step 1.

Using solution 1.	
Using pure phase assemblage 1.	
Using temperature 1.	

-------------------------------Phase assemblage--------------------------------

                                                      Moles in assemblage
Phase               SI  log IAP  log K(T, P)   Initial       Final       Delta

CO2(g)           -3.60    -5.31     -1.71    1.000e+02   1.000e+02  -2.893e-04
Calcite           0.00    -8.66     -8.66    1.000e+01   1.000e+01  -3.133e-04
Fluorapatite      0.00   -60.29    -60.29    1.000e+01   1.000e+01   5.359e-12
Hydroxyapatite    0.00    -5.47     -5.47    1.000e+01   1.000e+01  -5.628e-08

-----------------------------Solution composition------------------------------

	Elements           Molality       Moles

	C                 6.025e-04   6.025e-04
	Ca                3.135e-04   3.135e-04
	F                 9.464e-11   9.464e-11
	P                 1.691e-07   1.691e-07

----------------------------Description of solution----------------------------

                                       pH  =   8.344      Charge balance
                                       pe  =  -2.663      Adjusted to redox equilibrium
      Specific Conductance (µS/cm,  50°C)  = 99
                          Density (g/cm³)  =   0.98807
                               Volume (L)  =   1.01212
                        Activity of water  =   1.000
                 Ionic strength (mol/kgw)  =   9.239e-04
                       Mass of water (kg)  =   1.000e+00
                 Total alkalinity (eq/kg)  =   6.269e-04
                       Total CO2 (mol/kg)  =   6.025e-04
                         Temperature (°C)  =  50.00
                  Electrical balance (eq)  =  -1.217e-09
 Percent error, 100*(Cat-|An|)/(Cat+|An|)  =  -0.00
                               Iterations  =  16
                                  Total H  = 1.110124e+02
                                  Total O  = 5.550774e+01

----------------------------Distribution of species----------------------------

                                               Log       Log       Log    mole V
   Species          Molality    Activity  Molality  Activity     Gamma   cm³/mol

   OH-             1.252e-05   1.207e-05    -4.902    -4.918    -0.016     -3.80
   H+              4.691e-09   4.533e-09    -8.329    -8.344    -0.015      0.00
   H2O             5.551e+01   1.000e+00     1.744    -0.000     0.000     18.23
C(-4)         2.457e-30
   CH4             2.457e-30   2.458e-30   -29.610   -29.609     0.000     37.33
C(4)          6.025e-04
   HCO3-           5.786e-04   5.584e-04    -3.238    -3.253    -0.015     25.70
   CO3-2           9.501e-06   8.244e-06    -5.022    -5.084    -0.062     -5.30
   CaCO3           7.086e-06   7.087e-06    -5.150    -5.150     0.000    -14.53
   CO2             4.887e-06   4.888e-06    -5.311    -5.311     0.000     35.66
   CaHCO3+         2.459e-06   2.374e-06    -5.609    -5.625    -0.015     10.30
   (CO2)2          8.969e-13   8.971e-13   -12.047   -12.047     0.000     71.32
Ca            3.135e-04
   Ca+2            3.039e-04   2.637e-04    -3.517    -3.579    -0.062    -18.21
   CaCO3           7.086e-06   7.087e-06    -5.150    -5.150     0.000    -14.53
   CaHCO3+         2.459e-06   2.374e-06    -5.609    -5.625    -0.015     10.30
   CaHPO4          2.309e-08   2.310e-08    -7.637    -7.636     0.000     (0)  
   CaPO4-          1.929e-08   1.862e-08    -7.715    -7.730    -0.015     (0)  
   CaOH+           1.001e-08   9.653e-09    -8.000    -8.015    -0.016     (0)  
   CaH2PO4+        7.259e-11   7.006e-11   -10.139   -10.155    -0.015     (0)  
F             9.464e-11
   F-              9.464e-11   9.128e-11   -10.024   -10.040    -0.016     -1.51
   HF              9.943e-16   9.945e-16   -15.002   -15.002     0.000     13.33
   HF2-            4.081e-25   3.937e-25   -24.389   -24.405    -0.016     22.62
H(0)          4.888e-15
   H2              2.444e-15   2.445e-15   -14.612   -14.612     0.000     28.59
O(0)          0.000e+00
   O2              0.000e+00   0.000e+00   -55.713   -55.713     0.000     31.92
P             1.691e-07
   HPO4-2          1.197e-07   1.038e-07    -6.922    -6.984    -0.062      5.43
   CaHPO4          2.309e-08   2.310e-08    -7.637    -7.636     0.000     (0)  
   CaPO4-          1.929e-08   1.862e-08    -7.715    -7.730    -0.015     (0)  
   H2PO4-          6.903e-09   6.662e-09    -8.161    -8.176    -0.015     32.52
   CaH2PO4+        7.259e-11   7.006e-11   -10.139   -10.155    -0.015     (0)  
   PO4-3           2.263e-11   1.637e-11   -10.645   -10.786    -0.141    -26.04
   H3PO4           5.852e-15   5.854e-15   -14.233   -14.233     0.000     48.41

------------------------------Saturation indices-------------------------------

  Phase               SI** log IAP   log K(323 K,   1 atm)

  Aragonite        -0.13     -8.66   -8.54  CaCO3
  Calcite           0.00     -8.66   -8.66  CaCO3
  CH4(g)          -26.65    -29.61   -2.96  CH4
  CO2(g)           -3.60     -5.31   -1.71  CO2	 Pressure   0.0 atm, phi 1.000
  Fluorapatite      0.00    -60.29  -60.29  Ca5(F)(PO4)3
  Fluorite        -13.29    -23.66  -10.37  CaF2
  H2(g)           -11.48    -14.61   -3.14  H2
  H2O(g)           -0.92     -0.00    0.92  H2O
  Hydroxyapatite    0.00     -5.47   -5.47  Ca5(PO4)3OH
  Hydroxylapatite   3.67    -55.17  -58.84  Ca5(OH)(PO4)3
  O2(g)           -52.68    -55.71   -3.03  O2

**For a gas, SI = log10(fugacity). Fugacity = pressure * phi / 1 atm.
  For ideal gases, phi = 1.

------------------
End of simulation.
------------------

-------------------------------------
Reading input data for simulation 12.
-------------------------------------

	USE SOLUTION 1
	 EQUILIBRIUM_PHASES 1
	 CO2(g)    -3.56 100
	 Hydroxyapatite 0 10 dissolve_only
	 Fluorapatite 0 10 dissolve_only
	 Calcite 0 10 dissolve_only
	 REACTION_TEMPERATURE 1
	 50
	 END
-----------------------------------------
Beginning of batch-reaction calculations.
-----------------------------------------

Reaction step 1.

Using solution 1.	
Using pure phase assemblage 1.	
Using temperature 1.	

-------------------------------Phase assemblage--------------------------------

                                                      Moles in assemblage
Phase               SI  log IAP  log K(T, P)   Initial       Final       Delta

CO2(g)           -3.56    -5.27     -1.71    1.000e+02   1.000e+02  -2.998e-04
Calcite           0.00    -8.66     -8.66    1.000e+01   1.000e+01  -3.224e-04
Fluorapatite     -0.00   -60.29    -60.29    1.000e+01   1.000e+01   1.080e-11
Hydroxyapatite    0.00    -5.47     -5.47    1.000e+01   1.000e+01  -5.848e-08

-----------------------------Solution composition------------------------------

	Elements           Molality       Moles

	C                 6.223e-04   6.223e-04
	Ca                3.227e-04   3.227e-04
	F                 8.920e-11   8.920e-11
	P                 1.757e-07   1.757e-07

----------------------------Description of solution----------------------------

                                       pH  =   8.318      Charge balance
                                       pe  =  -2.637      Adjusted to redox equilibrium
      Specific Conductance (µS/cm,  50°C)  = 101
                          Density (g/cm³)  =   0.98807
                               Volume (L)  =   1.01212
                        Activity of water  =   1.000
                 Ionic strength (mol/kgw)  =   9.509e-04
                       Mass of water (kg)  =   1.000e+00
                 Total alkalinity (eq/kg)  =   6.452e-04
                       Total CO2 (mol/kg)  =   6.223e-04
                         Temperature (°C)  =  50.00
                  Electrical balance (eq)  =  -1.217e-09
 Percent error, 100*(Cat-|An|)/(Cat+|An|)  =  -0.00
                               Iterations  =  16
                                  Total H  = 1.110124e+02
                                  Total O  = 5.550778e+01

----------------------------Distribution of species----------------------------

                                               Log       Log       Log    mole V
   Species          Molality    Activity  Molality  Activity     Gamma   cm³/mol

   OH-             1.180e-05   1.137e-05    -4.928    -4.944    -0.016     -3.80
   H+              4.982e-09   4.812e-09    -8.303    -8.318    -0.015      0.00
   H2O             5.551e+01   1.000e+00     1.744    -0.000     0.000     18.23
C(-4)         2.695e-30
   CH4             2.695e-30   2.695e-30   -29.569   -29.569     0.000     37.33
C(4)          6.223e-04
   HCO3-           5.979e-04   5.768e-04    -3.223    -3.239    -0.016     25.70
   CO3-2           9.264e-06   8.023e-06    -5.033    -5.096    -0.062     -5.30
   CaCO3           7.086e-06   7.087e-06    -5.150    -5.150     0.000    -14.53
   CO2             5.359e-06   5.360e-06    -5.271    -5.271     0.000     35.66
   CaHCO3+         2.611e-06   2.520e-06    -5.583    -5.599    -0.016     10.30
   (CO2)2          1.078e-12   1.079e-12   -11.967   -11.967     0.000     71.32
Ca            3.227e-04
   Ca+2            3.130e-04   2.710e-04    -3.505    -3.567    -0.063    -18.21
   CaCO3           7.086e-06   7.087e-06    -5.150    -5.150     0.000    -14.53
   CaHCO3+         2.611e-06   2.520e-06    -5.583    -5.599    -0.016     10.30
   CaHPO4          2.455e-08   2.456e-08    -7.610    -7.610     0.000     (0)  
   CaPO4-          1.933e-08   1.865e-08    -7.714    -7.729    -0.016     (0)  
   CaOH+           9.692e-09   9.345e-09    -8.014    -8.029    -0.016     (0)  
   CaH2PO4+        8.198e-11   7.908e-11   -10.086   -10.102    -0.016     (0)  
F             8.920e-11
   F-              8.920e-11   8.599e-11   -10.050   -10.066    -0.016     -1.51
   HF              9.943e-16   9.945e-16   -15.002   -15.002     0.000     13.33
   HF2-            3.847e-25   3.709e-25   -24.415   -24.431    -0.016     22.62
H(0)          4.888e-15
   H2              2.444e-15   2.445e-15   -14.612   -14.612     0.000     28.59
O(0)          0.000e+00
   O2              0.000e+00   0.000e+00   -55.713   -55.713     0.000     31.92
P             1.757e-07
   HPO4-2          1.241e-07   1.074e-07    -6.906    -6.969    -0.063      5.43
   CaHPO4          2.455e-08   2.456e-08    -7.610    -7.610     0.000     (0)  
   CaPO4-          1.933e-08   1.865e-08    -7.714    -7.729    -0.016     (0)  
   H2PO4-          7.585e-09   7.317e-09    -8.120    -8.136    -0.016     32.52
   CaH2PO4+        8.198e-11   7.908e-11   -10.086   -10.102    -0.016     (0)  
   PO4-3           2.216e-11   1.596e-11   -10.654   -10.797    -0.143    -26.04
   H3PO4           6.823e-15   6.825e-15   -14.166   -14.166     0.000     48.41

------------------------------Saturation indices-------------------------------

  Phase               SI** log IAP   log K(323 K,   1 atm)

  Aragonite        -0.13     -8.66   -8.54  CaCO3
  Calcite           0.00     -8.66   -8.66  CaCO3
  CH4(g)          -26.61    -29.57   -2.96  CH4
  CO2(g)           -3.56     -5.27   -1.71  CO2	 Pressure   0.0 atm, phi 1.000
  Fluorapatite     -0.00    -60.29  -60.29  Ca5(F)(PO4)3
  Fluorite        -13.33    -23.70  -10.37  CaF2
  H2(g)           -11.48    -14.61   -3.14  H2
  H2O(g)           -0.92     -0.00    0.92  H2O
  Hydroxyapatite    0.00     -5.47   -5.47  Ca5(PO4)3OH
  Hydroxylapatite   3.67    -55.17  -58.84  Ca5(OH)(PO4)3
  O2(g)           -52.68    -55.71   -3.03  O2

**For a gas, SI = log10(fugacity). Fugacity = pressure * phi / 1 atm.
  For ideal gases, phi = 1.

------------------
End of simulation.
------------------

-------------------------------------
Reading input data for simulation 13.
-------------------------------------

	USE SOLUTION 1
	 EQUILIBRIUM_PHASES 1
	 CO2(g)    -3.52 100
	 Hydroxyapatite 0 10 dissolve_only
	 Fluorapatite 0 10 dissolve_only
	 Calcite 0 10 dissolve_only
	 REACTION_TEMPERATURE 1
	 50
	 END
-----------------------------------------
Beginning of batch-reaction calculations.
-----------------------------------------

Reaction step 1.

Using solution 1.	
Using pure phase assemblage 1.	
Using temperature 1.	

-------------------------------Phase assemblage--------------------------------

                                                      Moles in assemblage
Phase               SI  log IAP  log K(T, P)   Initial       Final       Delta

CO2(g)           -3.52    -5.23     -1.71    1.000e+02   1.000e+02  -3.108e-04
Calcite           0.00    -8.66     -8.66    1.000e+01   1.000e+01  -3.319e-04
Fluorapatite      0.00   -60.29    -60.29    1.000e+01   1.000e+01   1.593e-11
Hydroxyapatite    0.00    -5.47     -5.47    1.000e+01   1.000e+01  -6.079e-08

-----------------------------Solution composition------------------------------

	Elements           Molality       Moles

	C                 6.427e-04   6.427e-04
	Ca                3.322e-04   3.322e-04
	F                 8.407e-11   8.407e-11
	P                 1.826e-07   1.826e-07

----------------------------Description of solution----------------------------

                                       pH  =   8.292      Charge balance
                                       pe  =  -2.611      Adjusted to redox equilibrium
      Specific Conductance (µS/cm,  50°C)  = 104
                          Density (g/cm³)  =   0.98807
                               Volume (L)  =   1.01212
                        Activity of water  =   1.000
                 Ionic strength (mol/kgw)  =   9.788e-04
                       Mass of water (kg)  =   1.000e+00
                 Total alkalinity (eq/kg)  =   6.642e-04
                       Total CO2 (mol/kg)  =   6.427e-04
                         Temperature (°C)  =  50.00
                  Electrical balance (eq)  =  -1.217e-09
 Percent error, 100*(Cat-|An|)/(Cat+|An|)  =  -0.00
                               Iterations  =  16
                                  Total H  = 1.110124e+02
                                  Total O  = 5.550783e+01

----------------------------Distribution of species----------------------------

                                               Log       Log       Log    mole V
   Species          Molality    Activity  Molality  Activity     Gamma   cm³/mol

   OH-             1.112e-05   1.071e-05    -4.954    -4.970    -0.016     -3.80
   H+              5.291e-09   5.108e-09    -8.276    -8.292    -0.015      0.00
   H2O             5.551e+01   1.000e+00     1.744    -0.000     0.000     18.23
C(-4)         2.956e-30
   CH4             2.956e-30   2.957e-30   -29.529   -29.529     0.000     37.33
C(4)          6.427e-04
   HCO3-           6.179e-04   5.958e-04    -3.209    -3.225    -0.016     25.70
   CO3-2           9.031e-06   7.806e-06    -5.044    -5.108    -0.063     -5.30
   CaCO3           7.085e-06   7.087e-06    -5.150    -5.150     0.000    -14.53
   CO2             5.876e-06   5.877e-06    -5.231    -5.231     0.000     35.66
   CaHCO3+         2.774e-06   2.675e-06    -5.557    -5.573    -0.016     10.30
   (CO2)2          1.296e-12   1.297e-12   -11.887   -11.887     0.000     71.32
Ca            3.322e-04
   Ca+2            3.223e-04   2.785e-04    -3.492    -3.555    -0.063    -18.21
   CaCO3           7.085e-06   7.087e-06    -5.150    -5.150     0.000    -14.53
   CaHCO3+         2.774e-06   2.675e-06    -5.557    -5.573    -0.016     10.30
   CaHPO4          2.611e-08   2.611e-08    -7.583    -7.583     0.000     (0)  
   CaPO4-          1.938e-08   1.868e-08    -7.713    -7.729    -0.016     (0)  
   CaOH+           9.389e-09   9.048e-09    -8.027    -8.043    -0.016     (0)  
   CaH2PO4+        9.258e-11   8.927e-11   -10.033   -10.049    -0.016     (0)  
F             8.407e-11
   F-              8.407e-11   8.101e-11   -10.075   -10.091    -0.016     -1.51
   HF              9.943e-16   9.945e-16   -15.002   -15.002     0.000     13.33
   HF2-            3.626e-25   3.494e-25   -24.441   -24.457    -0.016     22.62
H(0)          4.889e-15
   H2              2.444e-15   2.445e-15   -14.612   -14.612     0.000     28.59
O(0)          0.000e+00
   O2              0.000e+00   0.000e+00   -55.713   -55.713     0.000     31.92
P             1.826e-07
[...]
   H2              2.456e-15   2.465e-15   -14.610   -14.608     0.002     28.59
O(0)          0.000e+00
   O2              0.000e+00   0.000e+00   -55.722   -55.720     0.002     31.92
P             3.667e-05
   H2PO4-          2.563e-05   2.263e-05    -4.591    -4.645    -0.054     32.65
   CaHPO4          4.797e-06   4.814e-06    -5.319    -5.317     0.002     (0)  
   HPO4-2          3.164e-06   1.910e-06    -5.500    -5.719    -0.219      5.87
   CaH2PO4+        3.054e-06   2.696e-06    -5.515    -5.569    -0.054     (0)  
   CaPO4-          2.381e-08   2.102e-08    -7.623    -7.677    -0.054     (0)  
   H3PO4           3.658e-09   3.671e-09    -8.437    -8.435     0.002     48.41
   PO4-3           5.284e-12   1.631e-12   -11.277   -11.788    -0.510    -25.06

------------------------------Saturation indices-------------------------------

  Phase               SI** log IAP   log K(323 K,   1 atm)

  Aragonite        -0.13     -8.66   -8.54  CaCO3
  Calcite           0.00     -8.66   -8.66  CaCO3
  CH4(g)          -23.16    -26.12   -2.96  CH4
  CO2(g)           -0.12     -1.83   -1.71  CO2	 Pressure   0.8 atm, phi 0.997
  Fluorapatite      0.00    -60.29  -60.29  Ca5(F)(PO4)3
  Fluorite        -16.77    -27.14  -10.37  CaF2
  H2(g)           -11.47    -14.61   -3.14  H2
  H2O(g)           -0.92     -0.00    0.92  H2O
  Hydroxyapatite    0.00     -5.47   -5.47  Ca5(PO4)3OH
  Hydroxylapatite   3.67    -55.17  -58.84  Ca5(OH)(PO4)3
  O2(g)           -52.69    -55.72   -3.03  O2

**For a gas, SI = log10(fugacity). Fugacity = pressure * phi / 1 atm.
  For ideal gases, phi = 1.

------------------
End of simulation.
------------------

-------------------------------------
Reading input data for simulation 99.
-------------------------------------

	USE SOLUTION 1
	 EQUILIBRIUM_PHASES 1
	 CO2(g)    -0.08 100
	 Hydroxyapatite 0 10 dissolve_only
	 Fluorapatite 0 10 dissolve_only
	 Calcite 0 10 dissolve_only
	 REACTION_TEMPERATURE 1
	 50
	 END
-----------------------------------------
Beginning of batch-reaction calculations.
-----------------------------------------

Reaction step 1.

Using solution 1.	
Using pure phase assemblage 1.	
Using temperature 1.	

-------------------------------Phase assemblage--------------------------------

                                                      Moles in assemblage
Phase               SI  log IAP  log K(T, P)   Initial       Final       Delta

CO2(g)           -0.08    -1.79     -1.71    1.000e+02   9.998e+01  -2.173e-02
Calcite           0.00    -8.66     -8.66    1.000e+01   9.994e+00  -5.561e-03
Fluorapatite      0.00   -60.29    -60.29    1.000e+01   1.000e+01   9.947e-11
Hydroxyapatite    0.00    -5.47     -5.47    1.000e+01   1.000e+01  -1.336e-05

-----------------------------Solution composition------------------------------

	Elements           Molality       Moles

	C                 2.729e-02   2.729e-02
	Ca                5.628e-03   5.628e-03
	F                 5.341e-13   5.340e-13
	P                 4.008e-05   4.007e-05

----------------------------Description of solution----------------------------

                                       pH  =   6.052      Charge balance
                                       pe  =  -0.372      Adjusted to redox equilibrium
      Specific Conductance (µS/cm,  50°C)  = 1481
                          Density (g/cm³)  =   0.98888
                               Volume (L)  =   1.01278
                        Activity of water  =   0.999
                 Ionic strength (mol/kgw)  =   1.580e-02
                       Mass of water (kg)  =   9.999e-01
                 Total alkalinity (eq/kg)  =   1.122e-02
                       Total CO2 (mol/kg)  =   2.729e-02
                         Temperature (°C)  =  50.00
                  Electrical balance (eq)  =  -1.217e-09
 Percent error, 100*(Cat-|An|)/(Cat+|An|)  =  -0.00
                               Iterations  =  17
                                  Total H  = 1.110124e+02
                                  Total O  = 5.556653e+01

----------------------------Distribution of species----------------------------

                                               Log       Log       Log    mole V
   Species          Molality    Activity  Molality  Activity     Gamma   cm³/mol

   H+              9.935e-07   8.879e-07    -6.003    -6.052    -0.049      0.00
   OH-             7.052e-08   6.161e-08    -7.152    -7.210    -0.059     -3.67
   H2O             5.551e+01   9.994e-01     1.744    -0.000     0.000     18.23
C(-4)         8.236e-27
   CH4             8.236e-27   8.266e-27   -26.084   -26.083     0.002     37.33
C(4)          2.729e-02
   CO2             1.607e-02   1.613e-02    -1.794    -1.792     0.002     35.66
   HCO3-           1.067e-02   9.402e-03    -1.972    -2.027    -0.055     25.84
   CaHCO3+         5.261e-04   4.649e-04    -3.279    -3.333    -0.054     10.38
   (CO2)2          9.731e-06   9.766e-06    -5.012    -5.010     0.002     71.32
   CaCO3           7.061e-06   7.087e-06    -5.151    -5.150     0.002    -14.53
   CO3-2           1.174e-06   7.087e-07    -5.930    -6.150    -0.219     -4.86
Ca            5.628e-03
   Ca+2            5.087e-03   3.067e-03    -2.294    -2.513    -0.220    -17.85
   CaHCO3+         5.261e-04   4.649e-04    -3.279    -3.333    -0.054     10.38
   CaCO3           7.061e-06   7.087e-06    -5.151    -5.150     0.002    -14.53
   CaHPO4          5.099e-06   5.118e-06    -5.292    -5.291     0.002     (0)  
   CaH2PO4+        3.450e-06   3.041e-06    -5.462    -5.517    -0.055     (0)  
   CaPO4-          2.390e-08   2.107e-08    -7.622    -7.676    -0.055     (0)  
   CaOH+           6.536e-10   5.730e-10    -9.185    -9.242    -0.057     (0)  
F             5.341e-13
   F-              5.331e-13   4.658e-13   -12.273   -12.332    -0.059     -1.40
   HF              9.904e-16   9.940e-16   -15.004   -15.003     0.002     13.33
   HF2-            2.290e-27   2.008e-27   -26.640   -26.697    -0.057     22.73
H(0)          4.894e-15
   H2              2.447e-15   2.456e-15   -14.611   -14.610     0.002     28.59
O(0)          0.000e+00
   O2              0.000e+00   0.000e+00   -55.718   -55.717     0.002     31.92
P             4.008e-05
   H2PO4-          2.820e-05   2.485e-05    -4.550    -4.605    -0.055     32.65
   CaHPO4          5.099e-06   5.118e-06    -5.292    -5.291     0.002     (0)  
   CaH2PO4+        3.450e-06   3.041e-06    -5.462    -5.517    -0.055     (0)  
   HPO4-2          3.300e-06   1.978e-06    -5.482    -5.704    -0.222      5.88
   CaPO4-          2.390e-08   2.107e-08    -7.622    -7.676    -0.055     (0)  
   H3PO4           4.262e-09   4.277e-09    -8.370    -8.369     0.002     48.41
   PO4-3           5.249e-12   1.592e-12   -11.280   -11.798    -0.518    -25.04

------------------------------Saturation indices-------------------------------

  Phase               SI** log IAP   log K(323 K,   1 atm)

  Aragonite        -0.13     -8.66   -8.54  CaCO3
  Calcite           0.00     -8.66   -8.66  CaCO3
  CH4(g)          -23.12    -26.08   -2.96  CH4
  CO2(g)           -0.08     -1.79   -1.71  CO2	 Pressure   0.8 atm, phi 0.996
  Fluorapatite      0.00    -60.29  -60.29  Ca5(F)(PO4)3
  Fluorite        -16.81    -27.18  -10.37  CaF2
  H2(g)           -11.47    -14.61   -3.14  H2
  H2O(g)           -0.92     -0.00    0.92  H2O
  Hydroxyapatite    0.00     -5.47   -5.47  Ca5(PO4)3OH
  Hydroxylapatite   3.67    -55.17  -58.84  Ca5(OH)(PO4)3
  O2(g)           -52.69    -55.72   -3.03  O2

**For a gas, SI = log10(fugacity). Fugacity = pressure * phi / 1 atm.
  For ideal gases, phi = 1.

------------------
End of simulation.
------------------

--------------------------------------
Reading input data for simulation 100.
--------------------------------------

	USE SOLUTION 1
	 EQUILIBRIUM_PHASES 1
	 CO2(g)    -0.04 100
	 Hydroxyapatite 0 10 dissolve_only
	 Fluorapatite 0 10 dissolve_only
	 Calcite 0 10 dissolve_only
	 REACTION_TEMPERATURE 1
	 50
	 END
-----------------------------------------
Beginning of batch-reaction calculations.
-----------------------------------------

Reaction step 1.

Using solution 1.	
Using pure phase assemblage 1.	
Using temperature 1.	

-------------------------------Phase assemblage--------------------------------

                                                      Moles in assemblage
Phase               SI  log IAP  log K(T, P)   Initial       Final       Delta

CO2(g)           -0.04    -1.75     -1.71    1.000e+02   9.998e+01  -2.348e-02
Calcite           0.00    -8.66     -8.66    1.000e+01   9.994e+00  -5.761e-03
Fluorapatite     -0.00   -60.29    -60.29    1.000e+01   1.000e+01   9.950e-11
Hydroxyapatite    0.00    -5.47     -5.47    1.000e+01   1.000e+01  -1.460e-05

-----------------------------Solution composition------------------------------

	Elements           Molality       Moles

	C                 2.924e-02   2.924e-02
	Ca                5.834e-03   5.834e-03
	F                 5.046e-13   5.045e-13
	P                 4.382e-05   4.381e-05

----------------------------Description of solution----------------------------

                                       pH  =   6.026      Charge balance
                                       pe  =  -0.347      Adjusted to redox equilibrium
      Specific Conductance (µS/cm,  50°C)  = 1529
                          Density (g/cm³)  =   0.98892
                               Volume (L)  =   1.01284
                        Activity of water  =   0.999
                 Ionic strength (mol/kgw)  =   1.635e-02
                       Mass of water (kg)  =   9.999e-01
                 Total alkalinity (eq/kg)  =   1.162e-02
                       Total CO2 (mol/kg)  =   2.924e-02
                         Temperature (°C)  =  50.00
                  Electrical balance (eq)  =  -1.217e-09
 Percent error, 100*(Cat-|An|)/(Cat+|An|)  =  -0.00
                               Iterations  =  17
                                  Total H  = 1.110124e+02
                                  Total O  = 5.557065e+01

----------------------------Distribution of species----------------------------

                                               Log       Log       Log    mole V
   Species          Molality    Activity  Molality  Activity     Gamma   cm³/mol

   H+              1.055e-06   9.418e-07    -5.977    -6.026    -0.049      0.00
   OH-             6.661e-08   5.808e-08    -7.176    -7.236    -0.059     -3.67
   H2O             5.551e+01   9.994e-01     1.744    -0.000     0.000     18.23
C(-4)         9.195e-27
   CH4             9.195e-27   9.230e-27   -26.036   -26.035     0.002     37.33
C(4)          2.924e-02
   CO2             1.761e-02   1.768e-02    -1.754    -1.753     0.002     35.66
   HCO3-           1.104e-02   9.715e-03    -1.957    -2.013    -0.056     25.85
   CaHCO3+         5.590e-04   4.932e-04    -3.253    -3.307    -0.054     10.39
   (CO2)2          1.169e-05   1.173e-05    -4.932    -4.931     0.002     71.32
   CaCO3           7.060e-06   7.087e-06    -5.151    -5.150     0.002    -14.53
   CO3-2           1.152e-06   6.904e-07    -5.939    -6.161    -0.222     -4.85
Ca            5.834e-03
   Ca+2            5.259e-03   3.149e-03    -2.279    -2.502    -0.223    -17.84
   CaHCO3+         5.590e-04   4.932e-04    -3.253    -3.307    -0.054     10.39
   CaCO3           7.060e-06   7.087e-06    -5.151    -5.150     0.002    -14.53
   CaHPO4          5.420e-06   5.441e-06    -5.266    -5.264     0.002     (0)  
   CaH2PO4+        3.897e-06   3.429e-06    -5.409    -5.465    -0.056     (0)  
   CaPO4-          2.399e-08   2.111e-08    -7.620    -7.675    -0.056     (0)  
   CaOH+           6.337e-10   5.545e-10    -9.198    -9.256    -0.058     (0)  
F             5.046e-13
   F-              5.036e-13   4.391e-13   -12.298   -12.357    -0.059     -1.40
   HF              9.902e-16   9.939e-16   -15.004   -15.003     0.002     13.33
   HF2-            2.163e-27   1.893e-27   -26.665   -26.723    -0.058     22.73
H(0)          4.916e-15
   H2              2.458e-15   2.467e-15   -14.609   -14.608     0.002     28.59
O(0)          0.000e+00
   O2              0.000e+00   0.000e+00   -55.723   -55.721     0.002     31.92
P             4.382e-05
   H2PO4-          3.103e-05   2.730e-05    -4.508    -4.564    -0.056     32.66
   CaHPO4          5.420e-06   5.441e-06    -5.266    -5.264     0.002     (0)  
   CaH2PO4+        3.897e-06   3.429e-06    -5.409    -5.465    -0.056     (0)  
   HPO4-2          3.442e-06   2.048e-06    -5.463    -5.689    -0.225      5.89
   CaPO4-          2.399e-08   2.111e-08    -7.620    -7.675    -0.056     (0)  
   H3PO4           4.965e-09   4.984e-09    -8.304    -8.302     0.002     48.41
   PO4-3           5.215e-12   1.554e-12   -11.283   -11.808    -0.526    -25.01

------------------------------Saturation indices-------------------------------

  Phase               SI** log IAP   log K(323 K,   1 atm)

  Aragonite        -0.13     -8.66   -8.54  CaCO3
  Calcite           0.00     -8.66   -8.66  CaCO3
  CH4(g)          -23.08    -26.03   -2.96  CH4
  CO2(g)           -0.04     -1.75   -1.71  CO2	 Pressure   0.9 atm, phi 0.996
  Fluorapatite     -0.00    -60.29  -60.29  Ca5(F)(PO4)3
  Fluorite        -16.85    -27.22  -10.37  CaF2
  H2(g)           -11.47    -14.61   -3.14  H2
  H2O(g)           -0.92     -0.00    0.92  H2O
  Hydroxyapatite    0.00     -5.47   -5.47  Ca5(PO4)3OH
  Hydroxylapatite   3.67    -55.17  -58.84  Ca5(OH)(PO4)3
  O2(g)           -52.69    -55.72   -3.03  O2

**For a gas, SI = log10(fugacity). Fugacity = pressure * phi / 1 atm.
  For ideal gases, phi = 1.

------------------
End of simulation.
------------------

--------------------------------------
Reading input data for simulation 101.
--------------------------------------

	USE SOLUTION 1
	 EQUILIBRIUM_PHASES 1
	 CO2(g)    0 100
	 Hydroxyapatite 0 10 dissolve_only
	 Fluorapatite 0 10 dissolve_only
	 Calcite 0 10 dissolve_only
	 REACTION_TEMPERATURE 1
	 50
	 END
-----------------------------------------
Beginning of batch-reaction calculations.
-----------------------------------------

Reaction step 1.

Using solution 1.	
Using pure phase assemblage 1.	
Using temperature 1.	

-------------------------------Phase assemblage--------------------------------

                                                      Moles in assemblage
Phase               SI  log IAP  log K(T, P)   Initial       Final       Delta

CO2(g)           -0.00    -1.71     -1.71    1.000e+02   9.997e+01  -2.539e-02
Calcite           0.00    -8.66     -8.66    1.000e+01   9.994e+00  -5.968e-03
Fluorapatite     -0.00   -60.29    -60.29    1.000e+01   1.000e+01   9.952e-11
Hydroxyapatite    0.00    -5.47     -5.47    1.000e+01   1.000e+01  -1.597e-05

-----------------------------Solution composition------------------------------

	Elements           Molality       Moles

	C                 3.136e-02   3.136e-02
	Ca                6.048e-03   6.048e-03
	F                 4.767e-13   4.767e-13
	P                 4.793e-05   4.792e-05

----------------------------Description of solution----------------------------

                                       pH  =   6.000      Charge balance
                                       pe  =  -0.320      Adjusted to redox equilibrium
      Specific Conductance (µS/cm,  50°C)  = 1580
                          Density (g/cm³)  =   0.98896
                               Volume (L)  =   1.01290
                        Activity of water  =   0.999
                 Ionic strength (mol/kgw)  =   1.692e-02
                       Mass of water (kg)  =   9.999e-01
                 Total alkalinity (eq/kg)  =   1.205e-02
                       Total CO2 (mol/kg)  =   3.136e-02
                         Temperature (°C)  =  50.00
                  Electrical balance (eq)  =  -1.217e-09
 Percent error, 100*(Cat-|An|)/(Cat+|An|)  =  -0.00
                               Iterations  =  17
                                  Total H  = 1.110124e+02
                                  Total O  = 5.557511e+01

----------------------------Distribution of species----------------------------

                                               Log       Log       Log    mole V
   Species          Molality    Activity  Molality  Activity     Gamma   cm³/mol

   H+              1.121e-06   9.990e-07    -5.950    -6.000    -0.050      0.00
   OH-             6.293e-08   5.476e-08    -7.201    -7.262    -0.060     -3.66
   H2O             5.551e+01   9.994e-01     1.744    -0.000     0.000     18.23
C(-4)         9.770e-27
   CH4             9.770e-27   9.808e-27   -26.010   -26.008     0.002     37.33
C(4)          3.136e-02
   CO2             1.930e-02   1.938e-02    -1.714    -1.713     0.002     35.66
   HCO3-           1.143e-02   1.004e-02    -1.942    -1.998    -0.056     25.85
   CaHCO3+         5.940e-04   5.231e-04    -3.226    -3.281    -0.055     10.39
   (CO2)2          1.404e-05   1.410e-05    -4.853    -4.851     0.002     71.32
   CaCO3           7.060e-06   7.087e-06    -5.151    -5.150     0.002    -14.53
   CO3-2           1.130e-06   6.726e-07    -5.947    -6.172    -0.225     -4.84
Ca            6.048e-03
   Ca+2            5.437e-03   3.232e-03    -2.265    -2.490    -0.226    -17.84
   CaHCO3+         5.940e-04   5.231e-04    -3.226    -3.281    -0.055     10.39
   CaCO3           7.060e-06   7.087e-06    -5.151    -5.150     0.002    -14.53
   CaHPO4          5.761e-06   5.784e-06    -5.239    -5.238     0.002     (0)  
   CaH2PO4+        4.402e-06   3.866e-06    -5.356    -5.413    -0.056     (0)  
   CaPO4-          2.409e-08   2.116e-08    -7.618    -7.675    -0.056     (0)  
   CaOH+           6.145e-10   5.366e-10    -9.212    -9.270    -0.059     (0)  
F             4.767e-13
   F-              4.757e-13   4.140e-13   -12.323   -12.383    -0.060     -1.39
   HF              9.900e-16   9.939e-16   -15.004   -15.003     0.002     13.33
   HF2-            2.043e-27   1.784e-27   -26.690   -26.748    -0.059     22.73
H(0)          4.877e-15
   H2              2.438e-15   2.448e-15   -14.613   -14.611     0.002     28.59
O(0)          0.000e+00
   O2              0.000e+00   0.000e+00   -55.716   -55.714     0.002     31.92
P             4.793e-05
   H2PO4-          3.415e-05   2.999e-05    -4.467    -4.523    -0.056     32.66
   CaHPO4          5.761e-06   5.784e-06    -5.239    -5.238     0.002     (0)  
   CaH2PO4+        4.402e-06   3.866e-06    -5.356    -5.413    -0.056     (0)  
   HPO4-2          3.591e-06   2.121e-06    -5.445    -5.673    -0.229      5.90
   CaPO4-          2.409e-08   2.116e-08    -7.618    -7.675    -0.056     (0)  
   H3PO4           5.784e-09   5.807e-09    -8.238    -8.236     0.002     48.41
   PO4-3           5.183e-12   1.518e-12   -11.285   -11.819    -0.533    -24.99

------------------------------Saturation indices-------------------------------

  Phase               SI** log IAP   log K(323 K,   1 atm)

  Aragonite        -0.13     -8.66   -8.54  CaCO3
  Calcite           0.00     -8.66   -8.66  CaCO3
  CH4(g)          -23.05    -26.01   -2.96  CH4
  CO2(g)           -0.00     -1.71   -1.71  CO2	 Pressure   1.0 atm, phi 0.996
  Fluorapatite     -0.00    -60.29  -60.29  Ca5(F)(PO4)3
  Fluorite        -16.89    -27.26  -10.37  CaF2
  H2(g)           -11.47    -14.61   -3.14  H2
  H2O(g)           -0.92     -0.00    0.92  H2O
  Hydroxyapatite    0.00     -5.47   -5.47  Ca5(PO4)3OH
  Hydroxylapatite   3.67    -55.17  -58.84  Ca5(OH)(PO4)3
  O2(g)           -52.68    -55.71   -3.03  O2

**For a gas, SI = log10(fugacity). Fugacity = pressure * phi / 1 atm.
  For ideal gases, phi = 1.

------------------
End of simulation.
------------------

--------------------------------------
Reading input data for simulation 102.
--------------------------------------

----------------------------------
End of Run after 0.173837 Seconds.
----------------------------------

