   Input file: ../examples/StreamModel_T0.pqi
  Output file: ../examples/StreamModel_T0.pqi.out
Database file: ../database/phreeqc-extended.dat

------------------
Reading data base.
------------------

	SOLUTION_MASTER_SPECIES
	SOLUTION_SPECIES
	PHASES
	EXCHANGE_MASTER_SPECIES
	EXCHANGE_SPECIES
	SURFACE_MASTER_SPECIES
	SURFACE_SPECIES
	RATES
	END
------------------------------------
Reading input data for simulation 1.
------------------------------------

	DATABASE ../database/phreeqc-extended.dat
	SOLUTION 1
	    temp      25
	    pH        7
	    pe        4
	    redox     pe
	    units     mmol/kgw
	    density   1
	    water    1 # kg
	SELECTED_OUTPUT 1
	    file                 ../examples/StreamModel_T0.sel
	    reset                false
	    temperature          true
	    ph          true
	    totals               P
	    saturation_indices   CO2(g)
	USE SOLUTION 1
	 EQUILIBRIUM_PHASES 1
	 CO2(g)    -4.00 100
	 Hydroxyapatite 0 10 dissolve_only
	 Fluorapatite 0 10 dissolve_only
	 Calcite 0 10 dissolve_only
	 REACTION_TEMPERATURE 1
	 0
	 END
-------------------------------------------
Beginning of initial solution calculations.
-------------------------------------------

Initial solution 1.	

-----------------------------Solution composition------------------------------

	Elements           Molality       Moles

	Pure water     

----------------------------Description of solution----------------------------

                                       pH  =   7.000    
                                       pe  =   4.000    
      Specific Conductance (µS/cm,  25°C)  = 0
                          Density (g/cm³)  =   0.99704
                               Volume (L)  =   1.00297
                        Activity of water  =   1.000
                 Ionic strength (mol/kgw)  =   1.007e-07
                       Mass of water (kg)  =   1.000e+00
                 Total alkalinity (eq/kg)  =   1.217e-09
                         Temperature (°C)  =  25.00
                  Electrical balance (eq)  =  -1.217e-09
 Percent error, 100*(Cat-|An|)/(Cat+|An|)  =  -0.60
                               Iterations  =   0
                                  Total H  = 1.110124e+02
                                  Total O  = 5.550622e+01

----------------------------Distribution of species----------------------------

                                               Log       Log       Log    mole V
   Species          Molality    Activity  Molality  Activity     Gamma   cm³/mol

   OH-             1.013e-07   1.012e-07    -6.995    -6.995    -0.000     -4.14
   H+              1.001e-07   1.000e-07    -7.000    -7.000    -0.000      0.00
   H2O             5.551e+01   1.000e+00     1.744     0.000     0.000     18.07
H(0)          1.416e-25
   H2              7.079e-26   7.079e-26   -25.150   -25.150     0.000     28.61
O(0)          0.000e+00
   O2              0.000e+00   0.000e+00   -42.080   -42.080     0.000     30.40

------------------------------Saturation indices-------------------------------

  Phase               SI** log IAP   log K(298 K,   1 atm)

  H2(g)           -22.05    -25.15   -3.10  H2
  H2O(g)           -1.50      0.00    1.50  H2O
  O2(g)           -39.19    -42.08   -2.89  O2

**For a gas, SI = log10(fugacity). Fugacity = pressure * phi / 1 atm.
  For ideal gases, phi = 1.

-----------------------------------------
Beginning of batch-reaction calculations.
-----------------------------------------

Reaction step 1.

Using solution 1.	
Using pure phase assemblage 1.	
Using temperature 1.	

-------------------------------Phase assemblage--------------------------------

                                                      Moles in assemblage
Phase               SI  log IAP  log K(T, P)   Initial       Final       Delta

CO2(g)           -4.00    -5.11     -1.11    1.000e+02   1.000e+02  -4.937e-04
Calcite           0.00    -8.38     -8.38    1.000e+01   9.999e+00  -5.027e-04
Fluorapatite      0.00   -56.67    -56.67    1.000e+01   1.000e+01  -5.553e-10
Hydroxyapatite   -0.00    -1.00     -1.00    1.000e+01   1.000e+01  -2.752e-07

-----------------------------Solution composition------------------------------

	Elements           Molality       Moles

	C                 9.964e-04   9.964e-04
	Ca                5.041e-04   5.041e-04
	F                 5.553e-10   5.553e-10
	P                 8.272e-07   8.272e-07

----------------------------Description of solution----------------------------

                                       pH  =   8.655      Charge balance
                                       pe  =  -2.865      Adjusted to redox equilibrium
      Specific Conductance (µS/cm,   0°C)  = 49
                          Density (g/cm³)  =   0.99991
                               Volume (L)  =   1.00016
                        Activity of water  =   1.000
                 Ionic strength (mol/kgw)  =   1.502e-03
                       Mass of water (kg)  =   1.000e+00
                 Total alkalinity (eq/kg)  =   1.007e-03
                       Total CO2 (mol/kg)  =   9.964e-04
                         Temperature (°C)  =   0.00
                  Electrical balance (eq)  =  -1.216e-09
 Percent error, 100*(Cat-|An|)/(Cat+|An|)  =  -0.00
                               Iterations  =  17
                                  Total H  = 1.110124e+02
                                  Total O  = 5.550872e+01

----------------------------Distribution of species----------------------------

                                               Log       Log       Log    mole V
   Species          Molality    Activity  Molality  Activity     Gamma   cm³/mol

   OH-             5.430e-07   5.207e-07    -6.265    -6.283    -0.018     -6.16
   H+              2.302e-09   2.213e-09    -8.638    -8.655    -0.017      0.00
   H2O             5.551e+01   1.000e+00     1.744    -0.000     0.000     18.02
C(-4)         3.403e-24
   CH4             3.403e-24   3.405e-24   -23.468   -23.468     0.000     32.63
C(4)          9.964e-04
   HCO3-           9.686e-04   9.297e-04    -3.014    -3.032    -0.018     21.38
   CO3-2           1.164e-05   9.881e-06    -4.934    -5.005    -0.071    -10.29
   CO2             7.793e-06   7.796e-06    -5.108    -5.108     0.000     33.05
   CaCO3           5.674e-06   5.675e-06    -5.246    -5.246     0.000    -14.71
   CaHCO3+         2.691e-06   2.583e-06    -5.570    -5.588    -0.018      8.14
   (CO2)2          4.291e-13   4.293e-13   -12.367   -12.367     0.000     66.09
Ca            5.041e-04
   Ca+2            4.956e-04   4.205e-04    -3.305    -3.376    -0.071    -18.87
   CaCO3           5.674e-06   5.675e-06    -5.246    -5.246     0.000    -14.71
   CaHCO3+         2.691e-06   2.583e-06    -5.570    -5.588    -0.018      8.14
   CaHPO4          7.878e-08   7.880e-08    -7.104    -7.103     0.000     (0)  
   CaPO4-          5.248e-08   5.037e-08    -7.280    -7.298    -0.018     (0)  
   CaOH+           3.288e-08   3.154e-08    -7.483    -7.501    -0.018     (0)  
   CaH2PO4+        1.567e-10   1.504e-10    -9.805    -9.823    -0.018     (0)  
F             5.553e-10
   F-              5.553e-10   5.325e-10    -9.255    -9.274    -0.018     -2.27
   HF              1.155e-15   1.156e-15   -14.937   -14.937     0.000     10.74
   HF2-            1.864e-24   1.788e-24   -23.730   -23.748    -0.018     19.93
H(0)          4.889e-15
   H2              2.445e-15   2.445e-15   -14.612   -14.612     0.000     28.65
O(0)          0.000e+00
   O2              0.000e+00   0.000e+00   -71.963   -71.963     0.000     27.49
P             8.272e-07
   HPO4-2          6.710e-07   5.691e-07    -6.173    -6.245    -0.072      6.96
   CaHPO4          7.878e-08   7.880e-08    -7.104    -7.103     0.000     (0)  
   CaPO4-          5.248e-08   5.037e-08    -7.280    -7.298    -0.018     (0)  
   H2PO4-          2.462e-08   2.363e-08    -7.609    -7.626    -0.018     33.70
   CaH2PO4+        1.567e-10   1.504e-10    -9.805    -9.823    -0.018     (0)  
   PO4-3           9.781e-11   6.720e-11   -10.010   -10.173    -0.163    -21.43
   H3PO4           5.560e-15   5.562e-15   -14.255   -14.255     0.000     45.31

------------------------------Saturation indices-------------------------------

  Phase               SI** log IAP   log K(273 K,   1 atm)

  Aragonite        -0.16     -8.38   -8.22  CaCO3
  Calcite           0.00     -8.38   -8.38  CaCO3
  CH4(g)          -20.99    -23.47   -2.47  CH4
  CO2(g)           -4.00     -5.11   -1.11  CO2	 Pressure   0.0 atm, phi 1.000
  Fluorapatite      0.00    -56.67  -56.67  Ca5(F)(PO4)3
  Fluorite        -10.97    -21.92  -10.96  CaF2
  H2(g)           -11.60    -14.61   -3.01  H2
  H2O(g)           -2.21     -0.00    2.21  H2O
  Hydroxyapatite   -0.00     -1.00   -1.00  Ca5(PO4)3OH
  Hydroxylapatite   4.90    -53.68  -58.58  Ca5(OH)(PO4)3
  O2(g)           -69.30    -71.96   -2.66  O2

**For a gas, SI = log10(fugacity). Fugacity = pressure * phi / 1 atm.
  For ideal gases, phi = 1.

------------------
End of simulation.
------------------

------------------------------------
Reading input data for simulation 2.
------------------------------------

	USE SOLUTION 1
	 EQUILIBRIUM_PHASES 1
	 CO2(g)    -3.96 100
	 Hydroxyapatite 0 10 dissolve_only
	 Fluorapatite 0 10 dissolve_only
	 Calcite 0 10 dissolve_only
	 REACTION_TEMPERATURE 1
	 0
	 END
-----------------------------------------
Beginning of batch-reaction calculations.
-----------------------------------------

Reaction step 1.

Using solution 1.	
Using pure phase assemblage 1.	
Using temperature 1.	

-------------------------------Phase assemblage--------------------------------

                                                      Moles in assemblage
Phase               SI  log IAP  log K(T, P)   Initial       Final       Delta

CO2(g)           -3.96    -5.07     -1.11    1.000e+02   1.000e+02  -5.105e-04
Calcite           0.00    -8.38     -8.38    1.000e+01   9.999e+00  -5.184e-04
Fluorapatite      0.00   -56.67    -56.67    1.000e+01   1.000e+01  -4.231e-10
Hydroxyapatite   -0.00    -1.00     -1.00    1.000e+01   1.000e+01  -2.857e-07

-----------------------------Solution composition------------------------------

	Elements           Molality       Moles

	C                 1.029e-03   1.029e-03
	Ca                5.198e-04   5.198e-04
	F                 5.231e-10   5.231e-10
	P                 8.588e-07   8.588e-07

----------------------------Description of solution----------------------------

                                       pH  =   8.629      Charge balance
                                       pe  =  -2.839      Adjusted to redox equilibrium
      Specific Conductance (µS/cm,   0°C)  = 50
                          Density (g/cm³)  =   0.99991
                               Volume (L)  =   1.00016
                        Activity of water  =   1.000
                 Ionic strength (mol/kgw)  =   1.548e-03
                       Mass of water (kg)  =   1.000e+00
                 Total alkalinity (eq/kg)  =   1.039e-03
                       Total CO2 (mol/kg)  =   1.029e-03
                         Temperature (°C)  =   0.00
                  Electrical balance (eq)  =  -1.216e-09
 Percent error, 100*(Cat-|An|)/(Cat+|An|)  =  -0.00
                               Iterations  =  17
                                  Total H  = 1.110124e+02
                                  Total O  = 5.550880e+01

----------------------------Distribution of species----------------------------

                                               Log       Log       Log    mole V
   Species          Molality    Activity  Molality  Activity     Gamma   cm³/mol

   OH-             5.115e-07   4.902e-07    -6.291    -6.310    -0.018     -6.16
   H+              2.446e-09   2.350e-09    -8.612    -8.629    -0.017      0.00
   H2O             5.551e+01   1.000e+00     1.744    -0.000     0.000     18.02
C(-4)         3.730e-24
   CH4             3.730e-24   3.731e-24   -23.428   -23.428     0.000     32.63
C(4)          1.029e-03
   HCO3-           1.000e-03   9.597e-04    -3.000    -3.018    -0.018     21.38
   CO3-2           1.134e-05   9.603e-06    -4.945    -5.018    -0.072    -10.29
   CO2             8.545e-06   8.548e-06    -5.068    -5.068     0.000     33.05
   CaCO3           5.673e-06   5.675e-06    -5.246    -5.246     0.000    -14.71
   CaHCO3+         2.860e-06   2.744e-06    -5.544    -5.562    -0.018      8.14
   (CO2)2          5.159e-13   5.161e-13   -12.287   -12.287     0.000     66.09
Ca            5.198e-04
   Ca+2            5.111e-04   4.327e-04    -3.291    -3.364    -0.072    -18.87
   CaCO3           5.673e-06   5.675e-06    -5.246    -5.246     0.000    -14.71
   CaHCO3+         2.860e-06   2.744e-06    -5.544    -5.562    -0.018      8.14
   CaHPO4          8.377e-08   8.380e-08    -7.077    -7.077     0.000     (0)  
   CaPO4-          5.257e-08   5.043e-08    -7.279    -7.297    -0.018     (0)  
   CaOH+           3.187e-08   3.055e-08    -7.497    -7.515    -0.018     (0)  
   CaH2PO4+        1.771e-10   1.699e-10    -9.752    -9.770    -0.018     (0)  
F             5.231e-10
   F-              5.231e-10   5.013e-10    -9.281    -9.300    -0.018     -2.27
   HF              1.155e-15   1.156e-15   -14.937   -14.937     0.000     10.74
   HF2-            1.756e-24   1.683e-24   -23.756   -23.774    -0.018     19.93
H(0)          4.889e-15
   H2              2.444e-15   2.445e-15   -14.612   -14.612     0.000     28.65
O(0)          0.000e+00
   O2              0.000e+00   0.000e+00   -71.963   -71.963     0.000     27.49
P             8.588e-07
   HPO4-2          6.951e-07   5.881e-07    -6.158    -6.231    -0.073      6.96
   CaHPO4          8.377e-08   8.380e-08    -7.077    -7.077     0.000     (0)  
   CaPO4-          5.257e-08   5.043e-08    -7.279    -7.297    -0.018     (0)  
   H2PO4-          2.704e-08   2.594e-08    -7.568    -7.586    -0.018     33.70
   CaH2PO4+        1.771e-10   1.699e-10    -9.752    -9.770    -0.018     (0)  
   PO4-3           9.568e-11   6.538e-11   -10.019   -10.185    -0.165    -21.43
   H3PO4           6.482e-15   6.485e-15   -14.188   -14.188     0.000     45.31

------------------------------Saturation indices-------------------------------

  Phase               SI** log IAP   log K(273 K,   1 atm)

  Aragonite        -0.16     -8.38   -8.22  CaCO3
  Calcite           0.00     -8.38   -8.38  CaCO3
  CH4(g)          -20.95    -23.43   -2.47  CH4
  CO2(g)           -3.96     -5.07   -1.11  CO2	 Pressure   0.0 atm, phi 1.000
  Fluorapatite      0.00    -56.67  -56.67  Ca5(F)(PO4)3
  Fluorite        -11.01    -21.96  -10.96  CaF2
  H2(g)           -11.60    -14.61   -3.01  H2
  H2O(g)           -2.21     -0.00    2.21  H2O
  Hydroxyapatite   -0.00     -1.00   -1.00  Ca5(PO4)3OH
  Hydroxylapatite   4.90    -53.68  -58.58  Ca5(OH)(PO4)3
  O2(g)           -69.30    -71.96   -2.66  O2

**For a gas, SI = log10(fugacity). Fugacity = pressure * phi / 1 atm.
  For ideal gases, phi = 1.

------------------
End of simulation.
------------------

------------------------------------
Reading input data for simulation 3.
------------------------------------

	USE SOLUTION 1
	 EQUILIBRIUM_PHASES 1
	 CO2(g)    -3.92 100
	 Hydroxyapatite 0 10 dissolve_only
	 Fluorapatite 0 10 dissolve_only
	 Calcite 0 10 dissolve_only
	 REACTION_TEMPERATURE 1
	 0
	 END
-----------------------------------------
Beginning of batch-reaction calculations.
-----------------------------------------

Reaction step 1.

Using solution 1.	
Using pure phase assemblage 1.	
Using temperature 1.	

-------------------------------Phase assemblage--------------------------------

                                                      Moles in assemblage
Phase               SI  log IAP  log K(T, P)   Initial       Final       Delta

CO2(g)           -3.92    -5.03     -1.11    1.000e+02   1.000e+02  -5.279e-04
Calcite           0.00    -8.38     -8.38    1.000e+01   9.999e+00  -5.346e-04
Fluorapatite      0.00   -56.67    -56.67    1.000e+01   1.000e+01  -3.928e-10
Hydroxyapatite   -0.00    -1.00     -1.00    1.000e+01   1.000e+01  -2.968e-07

-----------------------------Solution composition------------------------------

	Elements           Molality       Moles

	C                 1.063e-03   1.063e-03
	Ca                5.361e-04   5.361e-04
	F                 4.928e-10   4.928e-10
	P                 8.918e-07   8.918e-07

----------------------------Description of solution----------------------------

                                       pH  =   8.603      Charge balance
                                       pe  =  -2.813      Adjusted to redox equilibrium
      Specific Conductance (µS/cm,   0°C)  = 52
                          Density (g/cm³)  =   0.99991
                               Volume (L)  =   1.00016
                        Activity of water  =   1.000
                 Ionic strength (mol/kgw)  =   1.596e-03
                       Mass of water (kg)  =   1.000e+00
                 Total alkalinity (eq/kg)  =   1.071e-03
                       Total CO2 (mol/kg)  =   1.063e-03
                         Temperature (°C)  =   0.00
                  Electrical balance (eq)  =  -1.216e-09
 Percent error, 100*(Cat-|An|)/(Cat+|An|)  =  -0.00
                               Iterations  =  17
                                  Total H  = 1.110124e+02
                                  Total O  = 5.550888e+01

----------------------------Distribution of species----------------------------

                                               Log       Log       Log    mole V
   Species          Molality    Activity  Molality  Activity     Gamma   cm³/mol

   OH-             4.819e-07   4.615e-07    -6.317    -6.336    -0.019     -6.16
   H+              2.600e-09   2.497e-09    -8.585    -8.603    -0.018      0.00
   H2O             5.551e+01   1.000e+00     1.744    -0.000     0.000     18.02
C(-4)         4.089e-24
   CH4             4.089e-24   4.090e-24   -23.388   -23.388     0.000     32.63
C(4)          1.063e-03
   HCO3-           1.033e-03   9.907e-04    -2.986    -3.004    -0.018     21.39
   CO3-2           1.105e-05   9.333e-06    -4.957    -5.030    -0.073    -10.29
   CO2             9.369e-06   9.373e-06    -5.028    -5.028     0.000     33.05
   CaCO3           5.673e-06   5.675e-06    -5.246    -5.246     0.000    -14.71
   CaHCO3+         3.039e-06   2.915e-06    -5.517    -5.535    -0.018      8.14
   (CO2)2          6.203e-13   6.205e-13   -12.207   -12.207     0.000     66.09
Ca            5.361e-04
   Ca+2            5.272e-04   4.452e-04    -3.278    -3.351    -0.073    -18.86
   CaCO3           5.673e-06   5.675e-06    -5.246    -5.246     0.000    -14.71
   CaHCO3+         3.039e-06   2.915e-06    -5.517    -5.535    -0.018      8.14
   CaHPO4          8.907e-08   8.910e-08    -7.050    -7.050     0.000     (0)  
   CaPO4-          5.266e-08   5.048e-08    -7.279    -7.297    -0.018     (0)  
   CaOH+           3.089e-08   2.959e-08    -7.510    -7.529    -0.019     (0)  
   CaH2PO4+        2.001e-10   1.918e-10    -9.699    -9.717    -0.018     (0)  
F             4.928e-10
   F-              4.928e-10   4.719e-10    -9.307    -9.326    -0.019     -2.26
   HF              1.155e-15   1.156e-15   -14.937   -14.937     0.000     10.74
   HF2-            1.654e-24   1.584e-24   -23.781   -23.800    -0.019     19.94
H(0)          4.888e-15
   H2              2.444e-15   2.445e-15   -14.612   -14.612     0.000     28.65
O(0)          0.000e+00
   O2              0.000e+00   0.000e+00   -71.963   -71.963     0.000     27.49
P             8.918e-07
   HPO4-2          7.200e-07   6.077e-07    -6.143    -6.216    -0.074      6.96
   CaHPO4          8.907e-08   8.910e-08    -7.050    -7.050     0.000     (0)  
   CaPO4-          5.266e-08   5.048e-08    -7.279    -7.297    -0.018     (0)  
   H2PO4-          2.970e-08   2.848e-08    -7.527    -7.546    -0.018     33.70
   CaH2PO4+        2.001e-10   1.918e-10    -9.699    -9.717    -0.018     (0)  
   PO4-3           9.361e-11   6.361e-11   -10.029   -10.196    -0.168    -21.43
   H3PO4           7.558e-15   7.560e-15   -14.122   -14.121     0.000     45.31

------------------------------Saturation indices-------------------------------

  Phase               SI** log IAP   log K(273 K,   1 atm)

  Aragonite        -0.16     -8.38   -8.22  CaCO3
  Calcite           0.00     -8.38   -8.38  CaCO3
  CH4(g)          -20.91    -23.39   -2.47  CH4
  CO2(g)           -3.92     -5.03   -1.11  CO2	 Pressure   0.0 atm, phi 1.000
  Fluorapatite      0.00    -56.67  -56.67  Ca5(F)(PO4)3
  Fluorite        -11.05    -22.00  -10.96  CaF2
  H2(g)           -11.60    -14.61   -3.01  H2
  H2O(g)           -2.21     -0.00    2.21  H2O
  Hydroxyapatite   -0.00     -1.00   -1.00  Ca5(PO4)3OH
  Hydroxylapatite   4.90    -53.68  -58.58  Ca5(OH)(PO4)3
  O2(g)           -69.30    -71.96   -2.66  O2

**For a gas, SI = log10(fugacity). Fugacity = pressure * phi / 1 atm.
  For ideal gases, phi = 1.

------------------
End of simulation.
------------------

------------------------------------
Reading input data for simulation 4.
------------------------------------

	USE SOLUTION 1
	 EQUILIBRIUM_PHASES 1
	 CO2(g)    -3.88 100
	 Hydroxyapatite 0 10 dissolve_only
	 Fluorapatite 0 10 dissolve_only
	 Calcite 0 10 dissolve_only
	 REACTION_TEMPERATURE 1
	 0
	 END
-----------------------------------------
Beginning of batch-reaction calculations.
-----------------------------------------

Reaction step 1.

Using solution 1.	
Using pure phase assemblage 1.	
Using temperature 1.	

-------------------------------Phase assemblage--------------------------------

                                                      Moles in assemblage
Phase               SI  log IAP  log K(T, P)   Initial       Final       Delta

CO2(g)           -3.88    -4.99     -1.11    1.000e+02   1.000e+02  -5.459e-04
Calcite           0.00    -8.38     -8.38    1.000e+01   9.999e+00  -5.514e-04
Fluorapatite      0.00   -56.67    -56.67    1.000e+01   1.000e+01  -3.642e-10
Hydroxyapatite    0.00    -1.00     -1.00    1.000e+01   1.000e+01  -3.083e-07

-----------------------------Solution composition------------------------------

	Elements           Molality       Moles

	C                 1.097e-03   1.097e-03
	Ca                5.529e-04   5.529e-04
	F                 4.642e-10   4.642e-10
	P                 9.263e-07   9.263e-07

----------------------------Description of solution----------------------------

                                       pH  =   8.576      Charge balance
                                       pe  =  -2.787      Adjusted to redox equilibrium
      Specific Conductance (µS/cm,   0°C)  = 53
                          Density (g/cm³)  =   0.99992
                               Volume (L)  =   1.00016
                        Activity of water  =   1.000
                 Ionic strength (mol/kgw)  =   1.646e-03
                       Mass of water (kg)  =   1.000e+00
                 Total alkalinity (eq/kg)  =   1.105e-03
                       Total CO2 (mol/kg)  =   1.097e-03
                         Temperature (°C)  =   0.00
                  Electrical balance (eq)  =  -1.217e-09
 Percent error, 100*(Cat-|An|)/(Cat+|An|)  =  -0.00
                               Iterations  =  17
                                  Total H  = 1.110124e+02
                                  Total O  = 5.550897e+01

----------------------------Distribution of species----------------------------

                                               Log       Log       Log    mole V
   Species          Molality    Activity  Molality  Activity     Gamma   cm³/mol

   OH-             4.539e-07   4.345e-07    -6.343    -6.362    -0.019     -6.16
   H+              2.763e-09   2.652e-09    -8.559    -8.576    -0.018      0.00
   H2O             5.551e+01   1.000e+00     1.744    -0.000     0.000     18.02
C(-4)         4.490e-24
   CH4             4.490e-24   4.491e-24   -23.348   -23.348     0.000     32.63
C(4)          1.097e-03
   HCO3-           1.067e-03   1.023e-03    -2.972    -2.990    -0.019     21.39
   CO3-2           1.076e-05   9.069e-06    -4.968    -5.042    -0.074    -10.29
   CO2             1.027e-05   1.028e-05    -4.988    -4.988     0.000     33.05
   CaCO3           5.673e-06   5.675e-06    -5.246    -5.246     0.000    -14.71
   CaHCO3+         3.230e-06   3.096e-06    -5.491    -5.509    -0.018      8.14
   (CO2)2          7.457e-13   7.460e-13   -12.127   -12.127     0.000     66.09
Ca            5.529e-04
   Ca+2            5.438e-04   4.581e-04    -3.265    -3.339    -0.074    -18.86
   CaCO3           5.673e-06   5.675e-06    -5.246    -5.246     0.000    -14.71
   CaHCO3+         3.230e-06   3.096e-06    -5.491    -5.509    -0.018      8.14
   CaHPO4          9.471e-08   9.474e-08    -7.024    -7.023     0.000     (0)  
   CaPO4-          5.274e-08   5.053e-08    -7.278    -7.296    -0.019     (0)  
   CaOH+           2.994e-08   2.867e-08    -7.524    -7.543    -0.019     (0)  
   CaH2PO4+        2.262e-10   2.167e-10    -9.646    -9.664    -0.019     (0)  
F             4.642e-10
   F-              4.642e-10   4.443e-10    -9.333    -9.352    -0.019     -2.26
   HF              1.155e-15   1.156e-15   -14.937   -14.937     0.000     10.74
   HF2-            1.558e-24   1.492e-24   -23.807   -23.826    -0.019     19.94
H(0)          4.890e-15
   H2              2.445e-15   2.446e-15   -14.612   -14.612     0.000     28.65
O(0)          0.000e+00
   O2              0.000e+00   0.000e+00   -71.964   -71.963     0.000     27.49
P             9.263e-07
   HPO4-2          7.459e-07   6.280e-07    -6.127    -6.202    -0.075      6.97
   CaHPO4          9.471e-08   9.474e-08    -7.024    -7.023     0.000     (0)  
   CaPO4-          5.274e-08   5.053e-08    -7.278    -7.296    -0.019     (0)  
   H2PO4-          3.262e-08   3.126e-08    -7.486    -7.505    -0.019     33.70
   CaH2PO4+        2.262e-10   2.167e-10    -9.646    -9.664    -0.019     (0)  
   PO4-3           9.158e-11   6.188e-11   -10.038   -10.208    -0.170    -21.42
   H3PO4           8.812e-15   8.815e-15   -14.055   -14.055     0.000     45.31

------------------------------Saturation indices-------------------------------

  Phase               SI** log IAP   log K(273 K,   1 atm)

  Aragonite        -0.16     -8.38   -8.22  CaCO3
  Calcite           0.00     -8.38   -8.38  CaCO3
  CH4(g)          -20.87    -23.35   -2.47  CH4
  CO2(g)           -3.88     -4.99   -1.11  CO2	 Pressure   0.0 atm, phi 1.000
  Fluorapatite      0.00    -56.67  -56.67  Ca5(F)(PO4)3
  Fluorite        -11.09    -22.04  -10.96  CaF2
  H2(g)           -11.60    -14.61   -3.01  H2
  H2O(g)           -2.21     -0.00    2.21  H2O
  Hydroxyapatite    0.00     -1.00   -1.00  Ca5(PO4)3OH
  Hydroxylapatite   4.90    -53.68  -58.58  Ca5(OH)(PO4)3
  O2(g)           -69.30    -71.96   -2.66  O2

**For a gas, SI = log10(fugacity). Fugacity = pressure * phi / 1 atm.
  For ideal gases, phi = 1.

------------------
End of simulation.
------------------

------------------------------------
Reading input data for simulation 5.
------------------------------------

	USE SOLUTION 1
	 EQUILIBRIUM_PHASES 1
	 CO2(g)    -3.84 100
	 Hydroxyapatite 0 10 dissolve_only
	 Fluorapatite 0 10 dissolve_only
	 Calcite 0 10 dissolve_only
	 REACTION_TEMPERATURE 1
	 0
	 END
-----------------------------------------
Beginning of batch-reaction calculations.
-----------------------------------------

Reaction step 1.

Using solution 1.	
Using pure phase assemblage 1.	
Using temperature 1.	

-------------------------------Phase assemblage--------------------------------

                                                      Moles in assemblage
Phase               SI  log IAP  log K(T, P)   Initial       Final       Delta

CO2(g)           -3.84    -4.95     -1.11    1.000e+02   1.000e+02  -5.646e-04
Calcite           0.00    -8.38     -8.38    1.000e+01   9.999e+00  -5.687e-04
Fluorapatite      0.00   -56.67    -56.67    1.000e+01   1.000e+01  -3.373e-10
Hydroxyapatite    0.00    -1.00     -1.00    1.000e+01   1.000e+01  -3.204e-07

-----------------------------Solution composition------------------------------

	Elements           Molality       Moles

	C                 1.133e-03   1.133e-03
	Ca                5.703e-04   5.703e-04
	F                 4.373e-10   4.373e-10
	P                 9.624e-07   9.624e-07

----------------------------Description of solution----------------------------

                                       pH  =   8.550      Charge balance
                                       pe  =  -2.760      Adjusted to redox equilibrium
      Specific Conductance (µS/cm,   0°C)  = 55
                          Density (g/cm³)  =   0.99992
                               Volume (L)  =   1.00016
                        Activity of water  =   1.000
                 Ionic strength (mol/kgw)  =   1.698e-03
                       Mass of water (kg)  =   1.000e+00
                 Total alkalinity (eq/kg)  =   1.140e-03
                       Total CO2 (mol/kg)  =   1.133e-03
                         Temperature (°C)  =   0.00
                  Electrical balance (eq)  =  -1.217e-09
 Percent error, 100*(Cat-|An|)/(Cat+|An|)  =  -0.00
                               Iterations  =  17
                                  Total H  = 1.110124e+02
                                  Total O  = 5.550906e+01

----------------------------Distribution of species----------------------------

                                               Log       Log       Log    mole V
   Species          Molality    Activity  Molality  Activity     Gamma   cm³/mol

   OH-             4.276e-07   4.090e-07    -6.369    -6.388    -0.019     -6.16
   H+              2.937e-09   2.817e-09    -8.532    -8.550    -0.018      0.00
   H2O             5.551e+01   1.000e+00     1.744    -0.000     0.000     18.02
C(-4)         4.919e-24
   CH4             4.919e-24   4.921e-24   -23.308   -23.308     0.000     32.63
C(4)          1.133e-03
   HCO3-           1.102e-03   1.056e-03    -2.958    -2.976    -0.019     21.39
   CO2             1.126e-05   1.127e-05    -4.948    -4.948     0.000     33.05
   CO3-2           1.049e-05   8.813e-06    -4.979    -5.055    -0.075    -10.28
   CaCO3           5.673e-06   5.675e-06    -5.246    -5.246     0.000    -14.71
   CaHCO3+         3.433e-06   3.289e-06    -5.464    -5.483    -0.019      8.14
   (CO2)2          8.965e-13   8.969e-13   -12.047   -12.047     0.000     66.09
Ca            5.703e-04
   Ca+2            5.610e-04   4.714e-04    -3.251    -3.327    -0.076    -18.86
   CaCO3           5.673e-06   5.675e-06    -5.246    -5.246     0.000    -14.71
   CaHCO3+         3.433e-06   3.289e-06    -5.464    -5.483    -0.019      8.14
   CaHPO4          1.007e-07   1.007e-07    -6.997    -6.997     0.000     (0)  
   CaPO4-          5.283e-08   5.059e-08    -7.277    -7.296    -0.019     (0)  
   CaOH+           2.903e-08   2.777e-08    -7.537    -7.556    -0.019     (0)  
   CaH2PO4+        2.556e-10   2.447e-10    -9.592    -9.611    -0.019     (0)  
F             4.373e-10
   F-              4.373e-10   4.183e-10    -9.359    -9.379    -0.019     -2.26
   HF              1.155e-15   1.156e-15   -14.937   -14.937     0.000     10.74
   HF2-            1.468e-24   1.404e-24   -23.833   -23.853    -0.019     19.94
H(0)          4.889e-15
   H2              2.444e-15   2.445e-15   -14.612   -14.612     0.000     28.65
O(0)          0.000e+00
   O2              0.000e+00   0.000e+00   -71.963   -71.963     0.000     27.49
P             9.624e-07
   HPO4-2          7.727e-07   6.489e-07    -6.112    -6.188    -0.076      6.97
   CaHPO4          1.007e-07   1.007e-07    -6.997    -6.997     0.000     (0)  
   CaPO4-          5.283e-08   5.059e-08    -7.277    -7.296    -0.019     (0)  
   H2PO4-          3.583e-08   3.431e-08    -7.446    -7.465    -0.019     33.70
   CaH2PO4+        2.556e-10   2.447e-10    -9.592    -9.611    -0.019     (0)  
   PO4-3           8.961e-11   6.020e-11   -10.048   -10.220    -0.173    -21.42
   H3PO4           1.027e-14   1.028e-14   -13.988   -13.988     0.000     45.31

------------------------------Saturation indices-------------------------------

  Phase               SI** log IAP   log K(273 K,   1 atm)

  Aragonite        -0.16     -8.38   -8.22  CaCO3
  Calcite           0.00     -8.38   -8.38  CaCO3
  CH4(g)          -20.83    -23.31   -2.47  CH4
  CO2(g)           -3.84     -4.95   -1.11  CO2	 Pressure   0.0 atm, phi 1.000
  Fluorapatite      0.00    -56.67  -56.67  Ca5(F)(PO4)3
  Fluorite        -11.13    -22.08  -10.96  CaF2
  H2(g)           -11.60    -14.61   -3.01  H2
  H2O(g)           -2.21     -0.00    2.21  H2O
  Hydroxyapatite    0.00     -1.00   -1.00  Ca5(PO4)3OH
  Hydroxylapatite   4.90    -53.68  -58.58  Ca5(OH)(PO4)3
  O2(g)           -69.30    -71.96   -2.66  O2

**For a gas, SI = log10(fugacity). Fugacity = pressure * phi / 1 atm.
  For ideal gases, phi = 1.

------------------
End of simulation.
------------------

------------------------------------
Reading input data for simulation 6.
------------------------------------

	USE SOLUTION 1
	 EQUILIBRIUM_PHASES 1
	 CO2(g)    -3.80 100
	 Hydroxyapatite 0 10 dissolve_only
	 Fluorapatite 0 10 dissolve_only
	 Calcite 0 10 dissolve_only
	 REACTION_TEMPERATURE 1
	 0
	 END
-----------------------------------------
Beginning of batch-reaction calculations.
-----------------------------------------

Reaction step 1.

Using solution 1.	
Using pure phase assemblage 1.	
Using temperature 1.	

-------------------------------Phase assemblage--------------------------------

                                                      Moles in assemblage
Phase               SI  log IAP  log K(T, P)   Initial       Final       Delta

CO2(g)           -3.80    -4.91     -1.11    1.000e+02   1.000e+02  -5.840e-04
Calcite           0.00    -8.38     -8.38    1.000e+01   9.999e+00  -5.866e-04
Fluorapatite      0.00   -56.67    -56.67    1.000e+01   1.000e+01  -3.119e-10
Hydroxyapatite    0.00    -1.00     -1.00    1.000e+01   1.000e+01  -3.330e-07

-----------------------------Solution composition------------------------------

	Elements           Molality       Moles

	C                 1.171e-03   1.171e-03
	Ca                5.883e-04   5.883e-04
	F                 4.119e-10   4.119e-10
	P                 1.000e-06   1.000e-06

----------------------------Description of solution----------------------------

                                       pH  =   8.524      Charge balance
                                       pe  =  -2.734      Adjusted to redox equilibrium
      Specific Conductance (µS/cm,   0°C)  = 56
                          Density (g/cm³)  =   0.99992
                               Volume (L)  =   1.00016
                        Activity of water  =   1.000
                 Ionic strength (mol/kgw)  =   1.751e-03
                       Mass of water (kg)  =   1.000e+00
                 Total alkalinity (eq/kg)  =   1.176e-03
                       Total CO2 (mol/kg)  =   1.171e-03
                         Temperature (°C)  =   0.00
                  Electrical balance (eq)  =  -1.217e-09
 Percent error, 100*(Cat-|An|)/(Cat+|An|)  =  -0.00
                               Iterations  =  17
                                  Total H  = 1.110124e+02
                                  Total O  = 5.550915e+01

----------------------------Distribution of species----------------------------

                                               Log       Log       Log    mole V
   Species          Molality    Activity  Molality  Activity     Gamma   cm³/mol

   OH-             4.028e-07   3.850e-07    -6.395    -6.414    -0.020     -6.16
   H+              3.121e-09   2.992e-09    -8.506    -8.524    -0.018      0.00
   H2O             5.551e+01   1.000e+00     1.744    -0.000     0.000     18.02
C(-4)         5.390e-24
   CH4             5.390e-24   5.392e-24   -23.268   -23.268     0.000     32.63
C(4)          1.171e-03
   HCO3-           1.139e-03   1.090e-03    -2.944    -2.963    -0.019     21.39
   CO2             1.235e-05   1.236e-05    -4.908    -4.908     0.000     33.05
   CO3-2           1.022e-05   8.565e-06    -4.991    -5.067    -0.077    -10.28
   CaCO3           5.673e-06   5.675e-06    -5.246    -5.246     0.000    -14.71
   CaHCO3+         3.649e-06   3.493e-06    -5.438    -5.457    -0.019      8.14
   (CO2)2          1.078e-12   1.078e-12   -11.967   -11.967     0.000     66.09
Ca            5.883e-04
   Ca+2            5.788e-04   4.852e-04    -3.237    -3.314    -0.077    -18.86
   CaCO3           5.673e-06   5.675e-06    -5.246    -5.246     0.000    -14.71
   CaHCO3+         3.649e-06   3.493e-06    -5.438    -5.457    -0.019      8.14
   CaHPO4          1.071e-07   1.071e-07    -6.970    -6.970     0.000     (0)  
   CaPO4-          5.292e-08   5.064e-08    -7.276    -7.296    -0.019     (0)  
   CaOH+           2.814e-08   2.691e-08    -7.551    -7.570    -0.019     (0)  
   CaH2PO4+        2.889e-10   2.764e-10    -9.539    -9.558    -0.019     (0)  
F             4.119e-10
   F-              4.119e-10   3.938e-10    -9.385    -9.405    -0.020     -2.26
   HF              1.155e-15   1.156e-15   -14.937   -14.937     0.000     10.74
   HF2-            1.383e-24   1.322e-24   -23.859   -23.879    -0.019     19.94
H(0)          4.888e-15
   H2              2.444e-15   2.445e-15   -14.612   -14.612     0.000     28.65
O(0)          0.000e+00
   O2              0.000e+00   0.000e+00   -71.963   -71.963     0.000     27.49
P             1.000e-06
   HPO4-2          8.004e-07   6.705e-07    -6.097    -6.174    -0.077      6.97
   CaHPO4          1.071e-07   1.071e-07    -6.970    -6.970     0.000     (0)  
   CaPO4-          5.292e-08   5.064e-08    -7.276    -7.296    -0.019     (0)  
   H2PO4-          3.935e-08   3.765e-08    -7.405    -7.424    -0.019     33.70
   CaH2PO4+        2.889e-10   2.764e-10    -9.539    -9.558    -0.019     (0)  
   PO4-3           8.768e-11   5.856e-11   -10.057   -10.232    -0.175    -21.41
   H3PO4           1.198e-14   1.198e-14   -13.922   -13.921     0.000     45.31

------------------------------Saturation indices-------------------------------

  Phase               SI** log IAP   log K(273 K,   1 atm)

  Aragonite        -0.16     -8.38   -8.22  CaCO3
  Calcite           0.00     -8.38   -8.38  CaCO3
  CH4(g)          -20.79    -23.27   -2.47  CH4
  CO2(g)           -3.80     -4.91   -1.11  CO2	 Pressure   0.0 atm, phi 1.000
  Fluorapatite      0.00    -56.67  -56.67  Ca5(F)(PO4)3
  Fluorite        -11.17    -22.12  -10.96  CaF2
  H2(g)           -11.60    -14.61   -3.01  H2
  H2O(g)           -2.21     -0.00    2.21  H2O
  Hydroxyapatite    0.00     -1.00   -1.00  Ca5(PO4)3OH
  Hydroxylapatite   4.90    -53.68  -58.58  Ca5(OH)(PO4)3
  O2(g)           -69.30    -71.96   -2.66  O2

**For a gas, SI = log10(fugacity). Fugacity = pressure * phi / 1 atm.
  For ideal gases, phi = 1.

------------------
End of simulation.
------------------

------------------------------------
Reading input data for simulation 7.
------------------------------------

	USE SOLUTION 1
	 EQUILIBRIUM_PHASES 1
	 CO2(g)    -3.76 100
	 Hydroxyapatite 0 10 dissolve_only
	 Fluorapatite 0 10 dissolve_only
	 Calcite 0 10 dissolve_only
	 REACTION_TEMPERATURE 1
	 0
	 END
-----------------------------------------
Beginning of batch-reaction calculations.
-----------------------------------------

Reaction step 1.

Using solution 1.	
Using pure phase assemblage 1.	
Using temperature 1.	

-------------------------------Phase assemblage--------------------------------

                                                      Moles in assemblage
Phase               SI  log IAP  log K(T, P)   Initial       Final       Delta

CO2(g)           -3.76    -4.87     -1.11    1.000e+02   1.000e+02  -6.041e-04
Calcite           0.00    -8.38     -8.38    1.000e+01   9.999e+00  -6.052e-04
Fluorapatite      0.00   -56.67    -56.67    1.000e+01   1.000e+01  -2.881e-10
Hydroxyapatite    0.00    -1.00     -1.00    1.000e+01   1.000e+01  -3.462e-07

-----------------------------Solution composition------------------------------

	Elements           Molality       Moles

	C                 1.209e-03   1.209e-03
	Ca                6.069e-04   6.069e-04
	F                 3.881e-10   3.881e-10
	P                 1.040e-06   1.040e-06

----------------------------Description of solution----------------------------

                                       pH  =   8.498      Charge balance
                                       pe  =  -2.708      Adjusted to redox equilibrium
      Specific Conductance (µS/cm,   0°C)  = 58
                          Density (g/cm³)  =   0.99992
                               Volume (L)  =   1.00016
                        Activity of water  =   1.000
                 Ionic strength (mol/kgw)  =   1.806e-03
                       Mass of water (kg)  =   1.000e+00
                 Total alkalinity (eq/kg)  =   1.213e-03
                       Total CO2 (mol/kg)  =   1.209e-03
                         Temperature (°C)  =   0.00
                  Electrical balance (eq)  =  -1.217e-09
 Percent error, 100*(Cat-|An|)/(Cat+|An|)  =  -0.00
                               Iterations  =  17
                                  Total H  = 1.110124e+02
                                  Total O  = 5.550924e+01

----------------------------Distribution of species----------------------------

                                               Log       Log       Log    mole V
   Species          Molality    Activity  Molality  Activity     Gamma   cm³/mol

   OH-             3.795e-07   3.625e-07    -6.421    -6.441    -0.020     -6.16
   H+              3.317e-09   3.179e-09    -8.479    -8.498    -0.019      0.00
   H2O             5.551e+01   1.000e+00     1.744    -0.000     0.000     18.02
C(-4)         5.918e-24
   CH4             5.918e-24   5.920e-24   -23.228   -23.228     0.000     32.63
C(4)          1.209e-03
   HCO3-           1.176e-03   1.125e-03    -2.930    -2.949    -0.019     21.39
   CO2             1.354e-05   1.355e-05    -4.868    -4.868     0.000     33.05
   CO3-2           9.952e-06   8.322e-06    -5.002    -5.080    -0.078    -10.28
   CaCO3           5.673e-06   5.675e-06    -5.246    -5.246     0.000    -14.71
   CaHCO3+         3.879e-06   3.711e-06    -5.411    -5.431    -0.019      8.14
   (CO2)2          1.296e-12   1.296e-12   -11.887   -11.887     0.000     66.09
Ca            6.069e-04
   Ca+2            5.972e-04   4.993e-04    -3.224    -3.302    -0.078    -18.86
   CaCO3           5.673e-06   5.675e-06    -5.246    -5.246     0.000    -14.71
   CaHCO3+         3.879e-06   3.711e-06    -5.411    -5.431    -0.019      8.14
   CaHPO4          1.139e-07   1.139e-07    -6.944    -6.943     0.000     (0)  
   CaPO4-          5.301e-08   5.069e-08    -7.276    -7.295    -0.019     (0)  
   CaOH+           2.728e-08   2.607e-08    -7.564    -7.584    -0.020     (0)  
   CaH2PO4+        3.265e-10   3.122e-10    -9.486    -9.506    -0.019     (0)  
F             3.881e-10
   F-              3.881e-10   3.707e-10    -9.411    -9.431    -0.020     -2.26
   HF              1.155e-15   1.156e-15   -14.937   -14.937     0.000     10.74
   HF2-            1.302e-24   1.245e-24   -23.885   -23.905    -0.020     19.94
H(0)          4.890e-15
   H2              2.445e-15   2.446e-15   -14.612   -14.612     0.000     28.65
O(0)          0.000e+00
   O2              0.000e+00   0.000e+00   -71.964   -71.963     0.000     27.49
P             1.040e-06
   HPO4-2          8.292e-07   6.928e-07    -6.081    -6.159    -0.078      6.97
   CaHPO4          1.139e-07   1.139e-07    -6.944    -6.943     0.000     (0)  
   CaPO4-          5.301e-08   5.069e-08    -7.276    -7.295    -0.019     (0)  
   H2PO4-          4.322e-08   4.133e-08    -7.364    -7.384    -0.019     33.70
   CaH2PO4+        3.265e-10   3.122e-10    -9.486    -9.506    -0.019     (0)  
   PO4-3           8.580e-11   5.696e-11   -10.067   -10.244    -0.178    -21.41
   H3PO4           1.396e-14   1.397e-14   -13.855   -13.855     0.000     45.31

------------------------------Saturation indices-------------------------------

  Phase               SI** log IAP   log K(273 K,   1 atm)

  Aragonite        -0.16     -8.38   -8.22  CaCO3
  Calcite           0.00     -8.38   -8.38  CaCO3
  CH4(g)          -20.75    -23.23   -2.47  CH4
  CO2(g)           -3.76     -4.87   -1.11  CO2	 Pressure   0.0 atm, phi 1.000
  Fluorapatite      0.00    -56.67  -56.67  Ca5(F)(PO4)3
  Fluorite        -11.21    -22.16  -10.96  CaF2
  H2(g)           -11.60    -14.61   -3.01  H2
  H2O(g)           -2.21     -0.00    2.21  H2O
  Hydroxyapatite    0.00     -1.00   -1.00  Ca5(PO4)3OH
  Hydroxylapatite   4.90    -53.68  -58.58  Ca5(OH)(PO4)3
  O2(g)           -69.30    -71.96   -2.66  O2

**For a gas, SI = log10(fugacity). Fugacity = pressure * phi / 1 atm.
  For ideal gases, phi = 1.

------------------
End of simulation.
------------------

------------------------------------
Reading input data for simulation 8.
------------------------------------

	USE SOLUTION 1
	 EQUILIBRIUM_PHASES 1
	 CO2(g)    -3.72 100
	 Hydroxyapatite 0 10 dissolve_only
	 Fluorapatite 0 10 dissolve_only
	 Calcite 0 10 dissolve_only
	 REACTION_TEMPERATURE 1
	 0
	 END
-----------------------------------------
Beginning of batch-reaction calculations.
-----------------------------------------

Reaction step 1.

Using solution 1.	
Using pure phase assemblage 1.	
Using temperature 1.	

-------------------------------Phase assemblage--------------------------------

                                                      Moles in assemblage
Phase               SI  log IAP  log K(T, P)   Initial       Final       Delta

CO2(g)           -3.72    -4.83     -1.11    1.000e+02   1.000e+02  -6.249e-04
Calcite           0.00    -8.38     -8.38    1.000e+01   9.999e+00  -6.243e-04
Fluorapatite      0.00   -56.67    -56.67    1.000e+01   1.000e+01  -2.656e-10
Hydroxyapatite   -0.00    -1.00     -1.00    1.000e+01   1.000e+01  -3.600e-07

-----------------------------Solution composition------------------------------

	Elements           Molality       Moles

	C                 1.249e-03   1.249e-03
	Ca                6.261e-04   6.261e-04
	F                 3.656e-10   3.656e-10
	P                 1.081e-06   1.081e-06

----------------------------Description of solution----------------------------

                                       pH  =   8.472      Charge balance
                                       pe  =  -2.682      Adjusted to redox equilibrium
      Specific Conductance (µS/cm,   0°C)  = 60
                          Density (g/cm³)  =   0.99993
                               Volume (L)  =   1.00016
                        Activity of water  =   1.000
                 Ionic strength (mol/kgw)  =   1.863e-03
                       Mass of water (kg)  =   1.000e+00
                 Total alkalinity (eq/kg)  =   1.251e-03
                       Total CO2 (mol/kg)  =   1.249e-03
                         Temperature (°C)  =   0.00
                  Electrical balance (eq)  =  -1.217e-09
 Percent error, 100*(Cat-|An|)/(Cat+|An|)  =  -0.00
                               Iterations  =  17
                                  Total H  = 1.110124e+02
                                  Total O  = 5.550934e+01

----------------------------Distribution of species----------------------------

                                               Log       Log       Log    mole V
   Species          Molality    Activity  Molality  Activity     Gamma   cm³/mol

   OH-             3.575e-07   3.412e-07    -6.447    -6.467    -0.020     -6.16
   H+              3.526e-09   3.377e-09    -8.453    -8.472    -0.019      0.00
   H2O             5.551e+01   1.000e+00     1.744    -0.000     0.000     18.02
C(-4)         6.486e-24
   CH4             6.486e-24   6.489e-24   -23.188   -23.188     0.000     32.63
C(4)          1.249e-03
   HCO3-           1.215e-03   1.161e-03    -2.915    -2.935    -0.020     21.39
   CO2             1.485e-05   1.486e-05    -4.828    -4.828     0.000     33.05
   CO3-2           9.696e-06   8.087e-06    -5.013    -5.092    -0.079    -10.28
   CaCO3           5.673e-06   5.675e-06    -5.246    -5.246     0.000    -14.71
   CaHCO3+         4.123e-06   3.942e-06    -5.385    -5.404    -0.020      8.14
   (CO2)2          1.558e-12   1.559e-12   -11.807   -11.807     0.000     66.09
Ca            6.261e-04
   Ca+2            6.161e-04   5.138e-04    -3.210    -3.289    -0.079    -18.86
   CaCO3           5.673e-06   5.675e-06    -5.246    -5.246     0.000    -14.71
   CaHCO3+         4.123e-06   3.942e-06    -5.385    -5.404    -0.020      8.14
   CaHPO4          1.211e-07   1.211e-07    -6.917    -6.917     0.000     (0)  
   CaPO4-          5.309e-08   5.074e-08    -7.275    -7.295    -0.020     (0)  
   CaOH+           2.644e-08   2.525e-08    -7.578    -7.598    -0.020     (0)  
   CaH2PO4+        3.691e-10   3.527e-10    -9.433    -9.453    -0.020     (0)  
F             3.656e-10
   F-              3.656e-10   3.490e-10    -9.437    -9.457    -0.020     -2.26
   HF              1.155e-15   1.156e-15   -14.937   -14.937     0.000     10.74
   HF2-            1.227e-24   1.172e-24   -23.911   -23.931    -0.020     19.94
H(0)          4.889e-15
   H2              2.445e-15   2.446e-15   -14.612   -14.612     0.000     28.65
O(0)          0.000e+00
   O2              0.000e+00   0.000e+00   -71.964   -71.963     0.000     27.49
P             1.081e-06
   HPO4-2          8.590e-07   7.158e-07    -6.066    -6.145    -0.079      6.97
   CaHPO4          1.211e-07   1.211e-07    -6.917    -6.917     0.000     (0)  
   CaPO4-          5.309e-08   5.074e-08    -7.275    -7.295    -0.020     (0)  
   H2PO4-          4.747e-08   4.536e-08    -7.324    -7.343    -0.020     33.70
   CaH2PO4+        3.691e-10   3.527e-10    -9.433    -9.453    -0.020     (0)  
   PO4-3           8.396e-11   5.540e-11   -10.076   -10.256    -0.181    -21.41
   H3PO4           1.628e-14   1.629e-14   -13.788   -13.788     0.000     45.31

------------------------------Saturation indices-------------------------------

  Phase               SI** log IAP   log K(273 K,   1 atm)

  Aragonite        -0.16     -8.38   -8.22  CaCO3
  Calcite           0.00     -8.38   -8.38  CaCO3
  CH4(g)          -20.71    -23.19   -2.47  CH4
  CO2(g)           -3.72     -4.83   -1.11  CO2	 Pressure   0.0 atm, phi 1.000
  Fluorapatite      0.00    -56.67  -56.67  Ca5(F)(PO4)3
  Fluorite        -11.25    -22.20  -10.96  CaF2
  H2(g)           -11.60    -14.61   -3.01  H2
  H2O(g)           -2.21     -0.00    2.21  H2O
  Hydroxyapatite   -0.00     -1.00   -1.00  Ca5(PO4)3OH
  Hydroxylapatite   4.90    -53.68  -58.58  Ca5(OH)(PO4)3
  O2(g)           -69.30    -71.96   -2.66  O2

**For a gas, SI = log10(fugacity). Fugacity = pressure * phi / 1 atm.
  For ideal gases, phi = 1.

------------------
End of simulation.
------------------

------------------------------------
Reading input data for simulation 9.
------------------------------------

	USE SOLUTION 1
	 EQUILIBRIUM_PHASES 1
	 CO2(g)    -3.68 100
	 Hydroxyapatite 0 10 dissolve_only
	 Fluorapatite 0 10 dissolve_only
	 Calcite 0 10 dissolve_only
	 REACTION_TEMPERATURE 1
	 0
	 END
-----------------------------------------
Beginning of batch-reaction calculations.
-----------------------------------------

Reaction step 1.

Using solution 1.	
Using pure phase assemblage 1.	
Using temperature 1.	

-------------------------------Phase assemblage--------------------------------

                                                      Moles in assemblage
Phase               SI  log IAP  log K(T, P)   Initial       Final       Delta

CO2(g)           -3.68    -4.79     -1.11    1.000e+02   1.000e+02  -6.464e-04
Calcite           0.00    -8.38     -8.38    1.000e+01   9.999e+00  -6.441e-04
Fluorapatite      0.00   -56.67    -56.67    1.000e+01   1.000e+01  -2.444e-10
Hydroxyapatite    0.00    -1.00     -1.00    1.000e+01   1.000e+01  -3.745e-07

-----------------------------Solution composition------------------------------

	Elements           Molality       Moles

	C                 1.291e-03   1.291e-03
	Ca                6.460e-04   6.460e-04
	F                 3.444e-10   3.444e-10
	P                 1.125e-06   1.124e-06

----------------------------Description of solution----------------------------

                                       pH  =   8.445      Charge balance
                                       pe  =  -2.655      Adjusted to redox equilibrium
      Specific Conductance (µS/cm,   0°C)  = 62
                          Density (g/cm³)  =   0.99993
                               Volume (L)  =   1.00016
                        Activity of water  =   1.000
                 Ionic strength (mol/kgw)  =   1.922e-03
                       Mass of water (kg)  =   1.000e+00
                 Total alkalinity (eq/kg)  =   1.291e-03
                       Total CO2 (mol/kg)  =   1.291e-03
                         Temperature (°C)  =   0.00
                  Electrical balance (eq)  =  -1.217e-09
 Percent error, 100*(Cat-|An|)/(Cat+|An|)  =  -0.00
                               Iterations  =  17
                                  Total H  = 1.110124e+02
                                  Total O  = 5.550945e+01

----------------------------Distribution of species----------------------------

                                               Log       Log       Log    mole V
   Species          Molality    Activity  Molality  Activity     Gamma   cm³/mol

   OH-             3.368e-07   3.212e-07    -6.473    -6.493    -0.020     -6.16
   H+              3.748e-09   3.587e-09    -8.426    -8.445    -0.019      0.00
   H2O             5.551e+01   1.000e+00     1.744    -0.000     0.000     18.02
C(-4)         7.106e-24
   CH4             7.106e-24   7.109e-24   -23.148   -23.148     0.000     32.63
C(4)          1.291e-03
   HCO3-           1.255e-03   1.198e-03    -2.901    -2.921    -0.020     21.39
   CO2             1.628e-05   1.629e-05    -4.788    -4.788     0.000     33.05
   CO3-2           9.446e-06   7.858e-06    -5.025    -5.105    -0.080    -10.28
   CaCO3           5.673e-06   5.675e-06    -5.246    -5.246     0.000    -14.71
   CaHCO3+         4.383e-06   4.187e-06    -5.358    -5.378    -0.020      8.14
   (CO2)2          1.873e-12   1.874e-12   -11.727   -11.727     0.000     66.09
Ca            6.460e-04
   Ca+2            6.358e-04   5.288e-04    -3.197    -3.277    -0.080    -18.85
   CaCO3           5.673e-06   5.675e-06    -5.246    -5.246     0.000    -14.71
   CaHCO3+         4.383e-06   4.187e-06    -5.358    -5.378    -0.020      8.14
   CaHPO4          1.287e-07   1.288e-07    -6.890    -6.890     0.000     (0)  
   CaPO4-          5.318e-08   5.079e-08    -7.274    -7.294    -0.020     (0)  
   CaOH+           2.564e-08   2.446e-08    -7.591    -7.611    -0.020     (0)  
   CaH2PO4+        4.171e-10   3.984e-10    -9.380    -9.400    -0.020     (0)  
F             3.444e-10
   F-              3.444e-10   3.285e-10    -9.463    -9.483    -0.020     -2.26
   HF              1.155e-15   1.156e-15   -14.937   -14.937     0.000     10.74
   HF2-            1.156e-24   1.103e-24   -23.937   -23.957    -0.020     19.94
H(0)          4.888e-15
   H2              2.444e-15   2.445e-15   -14.612   -14.612     0.000     28.65
O(0)          0.000e+00
   O2              0.000e+00   0.000e+00   -71.963   -71.963     0.000     27.49
P             1.125e-06
   HPO4-2          8.900e-07   7.396e-07    -6.051    -6.131    -0.080      6.98
   CaHPO4          1.287e-07   1.288e-07    -6.890    -6.890     0.000     (0)  
   CaPO4-          5.318e-08   5.079e-08    -7.274    -7.294    -0.020     (0)  
   H2PO4-          5.213e-08   4.979e-08    -7.283    -7.303    -0.020     33.71
   CaH2PO4+        4.171e-10   3.984e-10    -9.380    -9.400    -0.020     (0)  
   PO4-3           8.217e-11   5.389e-11   -10.085   -10.268    -0.183    -21.40
   H3PO4           1.898e-14   1.899e-14   -13.722   -13.721     0.000     45.31

------------------------------Saturation indices-------------------------------

  Phase               SI** log IAP   log K(273 K,   1 atm)

  Aragonite        -0.16     -8.38   -8.22  CaCO3
  Calcite           0.00     -8.38   -8.38  CaCO3
  CH4(g)          -20.67    -23.15   -2.47  CH4
  CO2(g)           -3.68     -4.79   -1.11  CO2	 Pressure   0.0 atm, phi 1.000
  Fluorapatite      0.00    -56.67  -56.67  Ca5(F)(PO4)3
  Fluorite        -11.29    -22.24  -10.96  CaF2
  H2(g)           -11.60    -14.61   -3.01  H2
  H2O(g)           -2.21     -0.00    2.21  H2O
  Hydroxyapatite    0.00     -1.00   -1.00  Ca5(PO4)3OH
  Hydroxylapatite   4.90    -53.68  -58.58  Ca5(OH)(PO4)3
  O2(g)           -69.30    -71.96   -2.66  O2

**For a gas, SI = log10(fugacity). Fugacity = pressure * phi / 1 atm.
  For ideal gases, phi = 1.

------------------
End of simulation.
------------------

-------------------------------------
Reading input data for simulation 10.
-------------------------------------

	USE SOLUTION 1
	 EQUILIBRIUM_PHASES 1
	 CO2(g)    -3.64 100
	 Hydroxyapatite 0 10 dissolve_only
	 Fluorapatite 0 10 dissolve_only
	 Calcite 0 10 dissolve_only
	 REACTION_TEMPERATURE 1
	 0
	 END
-----------------------------------------
Beginning of batch-reaction calculations.
-----------------------------------------

Reaction step 1.

Using solution 1.	
Using pure phase assemblage 1.	
Using temperature 1.	

-------------------------------Phase assemblage--------------------------------

                                                      Moles in assemblage
Phase               SI  log IAP  log K(T, P)   Initial       Final       Delta

CO2(g)           -3.64    -4.75     -1.11    1.000e+02   1.000e+02  -6.688e-04
Calcite           0.00    -8.38     -8.38    1.000e+01   9.999e+00  -6.646e-04
Fluorapatite      0.00   -56.67    -56.67    1.000e+01   1.000e+01  -2.244e-10
Hydroxyapatite   -0.00    -1.00     -1.00    1.000e+01   1.000e+01  -3.897e-07

-----------------------------Solution composition------------------------------

	Elements           Molality       Moles

	C                 1.333e-03   1.333e-03
	Ca                6.666e-04   6.666e-04
	F                 3.244e-10   3.244e-10
	P                 1.170e-06   1.170e-06

----------------------------Description of solution----------------------------

                                       pH  =   8.419      Charge balance
                                       pe  =  -2.629      Adjusted to redox equilibrium
      Specific Conductance (µS/cm,   0°C)  = 64
                          Density (g/cm³)  =   0.99993
                               Volume (L)  =   1.00016
                        Activity of water  =   1.000
                 Ionic strength (mol/kgw)  =   1.983e-03
                       Mass of water (kg)  =   1.000e+00
                 Total alkalinity (eq/kg)  =   1.332e-03
                       Total CO2 (mol/kg)  =   1.333e-03
                         Temperature (°C)  =   0.00
                  Electrical balance (eq)  =  -1.217e-09
 Percent error, 100*(Cat-|An|)/(Cat+|An|)  =  -0.00
                               Iterations  =  17
                                  Total H  = 1.110124e+02
                                  Total O  = 5.550955e+01

----------------------------Distribution of species----------------------------

                                               Log       Log       Log    mole V
   Species          Molality    Activity  Molality  Activity     Gamma   cm³/mol

   OH-             3.172e-07   3.024e-07    -6.499    -6.519    -0.021     -6.16
   H+              3.984e-09   3.810e-09    -8.400    -8.419    -0.019      0.00
   H2O             5.551e+01   1.000e+00     1.744    -0.000     0.000     18.02
C(-4)         7.802e-24
   CH4             7.802e-24   7.805e-24   -23.108   -23.108     0.000     32.63
C(4)          1.333e-03
   HCO3-           1.296e-03   1.237e-03    -2.887    -2.908    -0.020     21.39
   CO2             1.785e-05   1.786e-05    -4.748    -4.748     0.000     33.05
   CO3-2           9.204e-06   7.636e-06    -5.036    -5.117    -0.081    -10.27
   CaCO3           5.673e-06   5.675e-06    -5.246    -5.246     0.000    -14.71
   CaHCO3+         4.659e-06   4.448e-06    -5.332    -5.352    -0.020      8.14
   (CO2)2          2.252e-12   2.253e-12   -11.647   -11.647     0.000     66.09
Ca            6.666e-04
   Ca+2            6.560e-04   5.442e-04    -3.183    -3.264    -0.081    -18.85
   CaCO3           5.673e-06   5.675e-06    -5.246    -5.246     0.000    -14.71
   CaHCO3+         4.659e-06   4.448e-06    -5.332    -5.352    -0.020      8.14
   CaHPO4          1.369e-07   1.369e-07    -6.864    -6.863     0.000     (0)  
   CaPO4-          5.327e-08   5.084e-08    -7.274    -7.294    -0.020     (0)  
   CaOH+           2.485e-08   2.370e-08    -7.605    -7.625    -0.021     (0)  
   CaH2PO4+        4.715e-10   4.500e-10    -9.327    -9.347    -0.020     (0)  
F             3.244e-10
   F-              3.244e-10   3.092e-10    -9.489    -9.510    -0.021     -2.26
   HF              1.155e-15   1.156e-15   -14.937   -14.937     0.000     10.74
   HF2-            1.089e-24   1.038e-24   -23.963   -23.984    -0.021     19.94
H(0)          4.890e-15
   H2              2.445e-15   2.446e-15   -14.612   -14.612     0.000     28.65
O(0)          0.000e+00
   O2              0.000e+00   0.000e+00   -71.964   -71.963     0.000     27.49
P             1.170e-06
   HPO4-2          9.220e-07   7.642e-07    -6.035    -6.117    -0.082      6.98
   CaHPO4          1.369e-07   1.369e-07    -6.864    -6.863     0.000     (0)  
   H2PO4-          5.726e-08   5.465e-08    -7.242    -7.262    -0.020     33.71
   CaPO4-          5.327e-08   5.084e-08    -7.274    -7.294    -0.020     (0)  
   CaH2PO4+        4.715e-10   4.500e-10    -9.327    -9.347    -0.020     (0)  
   PO4-3           8.043e-11   5.242e-11   -10.095   -10.281    -0.186    -21.40
   H3PO4           2.213e-14   2.214e-14   -13.655   -13.655     0.000     45.31

------------------------------Saturation indices-------------------------------

  Phase               SI** log IAP   log K(273 K,   1 atm)

  Aragonite        -0.16     -8.38   -8.22  CaCO3
  Calcite           0.00     -8.38   -8.38  CaCO3
  CH4(g)          -20.63    -23.11   -2.47  CH4
  CO2(g)           -3.64     -4.75   -1.11  CO2	 Pressure   0.0 atm, phi 1.000
  Fluorapatite      0.00    -56.67  -56.67  Ca5(F)(PO4)3
  Fluorite        -11.33    -22.28  -10.96  CaF2
  H2(g)           -11.60    -14.61   -3.01  H2
  H2O(g)           -2.21     -0.00    2.21  H2O
  Hydroxyapatite   -0.00     -1.00   -1.00  Ca5(PO4)3OH
  Hydroxylapatite   4.90    -53.68  -58.58  Ca5(OH)(PO4)3
  O2(g)           -69.30    -71.96   -2.66  O2

**For a gas, SI = log10(fugacity). Fugacity = pressure * phi / 1 atm.
  For ideal gases, phi = 1.

------------------
End of simulation.
------------------

-------------------------------------
Reading input data for simulation 11.
-------------------------------------

	USE SOLUTION 1
	 EQUILIBRIUM_PHASES 1
	 CO2(g)    -3.60 100
	 Hydroxyapatite 0 10 dissolve_only
	 Fluorapatite 0 10 dissolve_only
	 Calcite 0 10 dissolve_only
	 REACTION_TEMPERATURE 1
	 0
	 END
-----------------------------------------
Beginning of batch-reaction calculations.
-----------------------------------------

Reaction step 1.

Using solution 1.	
Using pure phase assemblage 1.	
Using temperature 1.	

-------------------------------Phase assemblage--------------------------------

                                                      Moles in assemblage
Phase               SI  log IAP  log K(T, P)   Initial       Final       Delta

CO2(g)           -3.60    -4.71     -1.11    1.000e+02   1.000e+02  -6.921e-04
Calcite           0.00    -8.38     -8.38    1.000e+01   9.999e+00  -6.858e-04
Fluorapatite      0.00   -56.67    -56.67    1.000e+01   1.000e+01  -2.056e-10
Hydroxyapatite   -0.00    -1.00     -1.00    1.000e+01   1.000e+01  -4.056e-07

-----------------------------Solution composition------------------------------

	Elements           Molality       Moles

	C                 1.378e-03   1.378e-03
	Ca                6.879e-04   6.878e-04
	F                 3.056e-10   3.056e-10
	P                 1.218e-06   1.218e-06

----------------------------Description of solution----------------------------

                                       pH  =   8.393      Charge balance
                                       pe  =  -2.603      Adjusted to redox equilibrium
      Specific Conductance (µS/cm,   0°C)  = 66
                          Density (g/cm³)  =   0.99994
                               Volume (L)  =   1.00016
                        Activity of water  =   1.000
                 Ionic strength (mol/kgw)  =   2.046e-03
                       Mass of water (kg)  =   1.000e+00
                 Total alkalinity (eq/kg)  =   1.374e-03
                       Total CO2 (mol/kg)  =   1.378e-03
                         Temperature (°C)  =   0.00
                  Electrical balance (eq)  =  -1.217e-09
 Percent error, 100*(Cat-|An|)/(Cat+|An|)  =  -0.00
                               Iterations  =  17
                                  Total H  = 1.110124e+02
                                  Total O  = 5.550966e+01

----------------------------Distribution of species----------------------------

                                               Log       Log       Log    mole V
   Species          Molality    Activity  Molality  Activity     Gamma   cm³/mol

   OH-             2.989e-07   2.847e-07    -6.525    -6.546    -0.021     -6.16
   H+              4.234e-09   4.047e-09    -8.373    -8.393    -0.020      0.00
   H2O             5.551e+01   1.000e+00     1.744    -0.000     0.000     18.02
C(-4)         8.552e-24
   CH4             8.552e-24   8.556e-24   -23.068   -23.068     0.000     32.63
C(4)          1.378e-03
   HCO3-           1.339e-03   1.277e-03    -2.873    -2.894    -0.021     21.39
   CO2             1.957e-05   1.958e-05    -4.708    -4.708     0.000     33.05
   CO3-2           8.967e-06   7.420e-06    -5.047    -5.130    -0.082    -10.27
   CaCO3           5.673e-06   5.675e-06    -5.246    -5.246     0.000    -14.71
   CaHCO3+         4.952e-06   4.725e-06    -5.305    -5.326    -0.020      8.14
   (CO2)2          2.707e-12   2.709e-12   -11.567   -11.567     0.000     66.09
Ca            6.879e-04
   Ca+2            6.770e-04   5.600e-04    -3.169    -3.252    -0.082    -18.85
   CaCO3           5.673e-06   5.675e-06    -5.246    -5.246     0.000    -14.71
   CaHCO3+         4.952e-06   4.725e-06    -5.305    -5.326    -0.020      8.14
   CaHPO4          1.456e-07   1.456e-07    -6.837    -6.837     0.000     (0)  
   CaPO4-          5.336e-08   5.089e-08    -7.273    -7.293    -0.021     (0)  
   CaOH+           2.410e-08   2.296e-08    -7.618    -7.639    -0.021     (0)  
   CaH2PO4+        5.329e-10   5.083e-10    -9.273    -9.294    -0.021     (0)  
F             3.056e-10
   F-              3.056e-10   2.911e-10    -9.515    -9.536    -0.021     -2.26
   HF              1.155e-15   1.156e-15   -14.937   -14.937     0.000     10.74
   HF2-            1.026e-24   9.774e-25   -23.989   -24.010    -0.021     19.94
H(0)          4.889e-15
   H2              2.445e-15   2.446e-15   -14.612   -14.612     0.000     28.65
O(0)          0.000e+00
   O2              0.000e+00   0.000e+00   -71.964   -71.963     0.000     27.49
P             1.218e-06
   HPO4-2          9.553e-07   7.896e-07    -6.020    -6.103    -0.083      6.98
   CaHPO4          1.456e-07   1.456e-07    -6.837    -6.837     0.000     (0)  
   H2PO4-          6.289e-08   5.998e-08    -7.201    -7.222    -0.021     33.71
   CaPO4-          5.336e-08   5.089e-08    -7.273    -7.293    -0.021     (0)  
   CaH2PO4+        5.329e-10   5.083e-10    -9.273    -9.294    -0.021     (0)  
   PO4-3           7.873e-11   5.098e-11   -10.104   -10.293    -0.189    -21.39
   H3PO4           2.580e-14   2.582e-14   -13.588   -13.588     0.000     45.31

------------------------------Saturation indices-------------------------------

  Phase               SI** log IAP   log K(273 K,   1 atm)

  Aragonite        -0.16     -8.38   -8.22  CaCO3
  Calcite           0.00     -8.38   -8.38  CaCO3
  CH4(g)          -20.59    -23.07   -2.47  CH4
  CO2(g)           -3.60     -4.71   -1.11  CO2	 Pressure   0.0 atm, phi 1.000
  Fluorapatite      0.00    -56.67  -56.67  Ca5(F)(PO4)3
  Fluorite        -11.37    -22.32  -10.96  CaF2
  H2(g)           -11.60    -14.61   -3.01  H2
  H2O(g)           -2.21     -0.00    2.21  H2O
  Hydroxyapatite   -0.00     -1.00   -1.00  Ca5(PO4)3OH
  Hydroxylapatite   4.90    -53.68  -58.58  Ca5(OH)(PO4)3
  O2(g)           -69.30    -71.96   -2.66  O2

**For a gas, SI = log10(fugacity). Fugacity = pressure * phi / 1 atm.
  For ideal gases, phi = 1.

------------------
End of simulation.
------------------

-------------------------------------
Reading input data for simulation 12.
-------------------------------------

	USE SOLUTION 1
	 EQUILIBRIUM_PHASES 1
	 CO2(g)    -3.56 100
	 Hydroxyapatite 0 10 dissolve_only
	 Fluorapatite 0 10 dissolve_only
	 Calcite 0 10 dissolve_only
	 REACTION_TEMPERATURE 1
	 0
	 END
-----------------------------------------
Beginning of batch-reaction calculations.
-----------------------------------------

Reaction step 1.

Using solution 1.	
Using pure phase assemblage 1.	
Using temperature 1.	

-------------------------------Phase assemblage--------------------------------

                                                      Moles in assemblage
Phase               SI  log IAP  log K(T, P)   Initial       Final       Delta

CO2(g)           -3.56    -4.67     -1.11    1.000e+02   1.000e+02  -7.162e-04
Calcite           0.00    -8.38     -8.38    1.000e+01   9.999e+00  -7.077e-04
Fluorapatite      0.00   -56.67    -56.67    1.000e+01   1.000e+01  -1.879e-10
Hydroxyapatite    0.00    -1.00     -1.00    1.000e+01   1.000e+01  -4.223e-07

-----------------------------Solution composition------------------------------

	Elements           Molality       Moles

	C                 1.424e-03   1.424e-03
	Ca                7.098e-04   7.098e-04
	F                 2.879e-10   2.879e-10
	P                 1.268e-06   1.268e-06

----------------------------Description of solution----------------------------

                                       pH  =   8.367      Charge balance
                                       pe  =  -2.577      Adjusted to redox equilibrium
      Specific Conductance (µS/cm,   0°C)  = 68
                          Density (g/cm³)  =   0.99994
                               Volume (L)  =   1.00016
                        Activity of water  =   1.000
                 Ionic strength (mol/kgw)  =   2.111e-03
                       Mass of water (kg)  =   1.000e+00
                 Total alkalinity (eq/kg)  =   1.418e-03
                       Total CO2 (mol/kg)  =   1.424e-03
                         Temperature (°C)  =   0.00
                  Electrical balance (eq)  =  -1.217e-09
 Percent error, 100*(Cat-|An|)/(Cat+|An|)  =  -0.00
                               Iterations  =  17
                                  Total H  = 1.110124e+02
                                  Total O  = 5.550978e+01

----------------------------Distribution of species----------------------------

                                               Log       Log       Log    mole V
   Species          Molality    Activity  Molality  Activity     Gamma   cm³/mol

   OH-             2.815e-07   2.680e-07    -6.550    -6.572    -0.021     -6.16
   H+              4.501e-09   4.299e-09    -8.347    -8.367    -0.020      0.00
   H2O             5.551e+01   1.000e+00     1.744    -0.000     0.000     18.02
C(-4)         9.358e-24
   CH4             9.358e-24   9.363e-24   -23.029   -23.029     0.000     32.63
C(4)          1.424e-03
   HCO3-           1.383e-03   1.318e-03    -2.859    -2.880    -0.021     21.39
   CO2             2.146e-05   2.147e-05    -4.668    -4.668     0.000     33.05
   CO3-2           8.737e-06   7.209e-06    -5.059    -5.142    -0.083    -10.27
   CaCO3           5.673e-06   5.675e-06    -5.246    -5.246     0.000    -14.71
   CaHCO3+         5.264e-06   5.019e-06    -5.279    -5.299    -0.021      8.14
   (CO2)2          3.255e-12   3.256e-12   -11.487   -11.487     0.000     66.09
Ca            7.098e-04
   Ca+2            6.987e-04   5.763e-04    -3.156    -3.239    -0.084    -18.85
   CaCO3           5.673e-06   5.675e-06    -5.246    -5.246     0.000    -14.71
   CaHCO3+         5.264e-06   5.019e-06    -5.279    -5.299    -0.021      8.14
   CaHPO4          1.548e-07   1.548e-07    -6.810    -6.810     0.000     (0)  
   CaPO4-          5.345e-08   5.094e-08    -7.272    -7.293    -0.021     (0)  
   CaOH+           2.336e-08   2.225e-08    -7.631    -7.653    -0.021     (0)  
   CaH2PO4+        6.024e-10   5.741e-10    -9.220    -9.241    -0.021     (0)  
F             2.879e-10
   F-              2.879e-10   2.741e-10    -9.541    -9.562    -0.021     -2.26
   HF              1.155e-15   1.156e-15   -14.937   -14.937     0.000     10.74
   HF2-            9.662e-25   9.201e-25   -24.015   -24.036    -0.021     19.94
H(0)          4.887e-15
   H2              2.443e-15   2.445e-15   -14.612   -14.612     0.000     28.65
O(0)          0.000e+00
   O2              0.000e+00   0.000e+00   -71.963   -71.963     0.000     27.49
P             1.268e-06
   HPO4-2          9.898e-07   8.158e-07    -6.004    -6.088    -0.084      6.98
   CaHPO4          1.548e-07   1.548e-07    -6.810    -6.810     0.000     (0)  
   H2PO4-          6.907e-08   6.583e-08    -7.161    -7.182    -0.021     33.71
   CaPO4-          5.345e-08   5.094e-08    -7.272    -7.293    -0.021     (0)  
   CaH2PO4+        6.024e-10   5.741e-10    -9.220    -9.241    -0.021     (0)  
   PO4-3           7.707e-11   4.959e-11   -10.113   -10.305    -0.192    -21.39
   H3PO4           3.008e-14   3.010e-14   -13.522   -13.521     0.000     45.31

------------------------------Saturation indices-------------------------------

  Phase               SI** log IAP   log K(273 K,   1 atm)

  Aragonite        -0.16     -8.38   -8.22  CaCO3
  Calcite           0.00     -8.38   -8.38  CaCO3
  CH4(g)          -20.55    -23.03   -2.47  CH4
  CO2(g)           -3.56     -4.67   -1.11  CO2	 Pressure   0.0 atm, phi 1.000
  Fluorapatite      0.00    -56.67  -56.67  Ca5(F)(PO4)3
  Fluorite        -11.41    -22.36  -10.96  CaF2
  H2(g)           -11.60    -14.61   -3.01  H2
  H2O(g)           -2.21     -0.00    2.21  H2O
  Hydroxyapatite    0.00     -1.00   -1.00  Ca5(PO4)3OH
  Hydroxylapatite   4.90    -53.68  -58.58  Ca5(OH)(PO4)3
  O2(g)           -69.30    -71.96   -2.66  O2

**For a gas, SI = log10(fugacity). Fugacity = pressure * phi / 1 atm.
  For ideal gases, phi = 1.

------------------
End of simulation.
------------------

-------------------------------------
Reading input data for simulation 13.
-------------------------------------

	USE SOLUTION 1
	 EQUILIBRIUM_PHASES 1
	 CO2(g)    -3.52 100
	 Hydroxyapatite 0 10 dissolve_only
	 Fluorapatite 0 10 dissolve_only
	 Calcite 0 10 dissolve_only
	 REACTION_TEMPERATURE 1
	 0
	 END
-----------------------------------------
Beginning of batch-reaction calculations.
-----------------------------------------

Reaction step 1.

Using solution 1.	
Using pure phase assemblage 1.	
Using temperature 1.	

-------------------------------Phase assemblage--------------------------------

                                                      Moles in assemblage
Phase               SI  log IAP  log K(T, P)   Initial       Final       Delta

CO2(g)           -3.52    -4.63     -1.11    1.000e+02   1.000e+02  -7.412e-04
Calcite           0.00    -8.38     -8.38    1.000e+01   9.999e+00  -7.304e-04
Fluorapatite     -0.00   -56.67    -56.67    1.000e+01   1.000e+01  -1.712e-10
Hydroxyapatite   -0.00    -1.00     -1.00    1.000e+01   1.000e+01  -4.398e-07

-----------------------------Solution composition------------------------------

	Elements           Molality       Moles

	C                 1.472e-03   1.472e-03
	Ca                7.326e-04   7.326e-04
	F                 2.712e-10   2.712e-10
	P                 1.320e-06   1.320e-06

----------------------------Description of solution----------------------------

                                       pH  =   8.340      Charge balance
                                       pe  =  -2.551      Adjusted to redox equilibrium
      Specific Conductance (µS/cm,   0°C)  = 70
                          Density (g/cm³)  =   0.99994
                               Volume (L)  =   1.00016
                        Activity of water  =   1.000
                 Ionic strength (mol/kgw)  =   2.178e-03
                       Mass of water (kg)  =   1.000e+00
                 Total alkalinity (eq/kg)  =   1.464e-03
                       Total CO2 (mol/kg)  =   1.472e-03
                         Temperature (°C)  =   0.00
                  Electrical balance (eq)  =  -1.217e-09
 Percent error, 100*(Cat-|An|)/(Cat+|An|)  =  -0.00
                               Iterations  =  17
                                  Total H  = 1.110124e+02
                                  Total O  = 5.550990e+01

----------------------------Distribution of species----------------------------

                                               Log       Log       Log    mole V
   Species          Molality    Activity  Molality  Activity     Gamma   cm³/mol

   OH-             2.652e-07   2.523e-07    -6.576    -6.598    -0.022     -6.16
   H+              4.784e-09   4.567e-09    -8.320    -8.340    -0.020      0.00
   H2O             5.551e+01   1.000e+00     1.744    -0.000     0.000     18.02
C(-4)         1.029e-23
   CH4             1.029e-23   1.030e-23   -22.987   -22.987     0.000     32.63
C(4)          1.472e-03
   HCO3-           1.428e-03   1.360e-03    -2.845    -2.866    -0.021     21.39
   CO2             2.353e-05   2.354e-05    -4.628    -4.628     0.000     33.05
   CO3-2           8.514e-06   7.005e-06    -5.070    -5.155    -0.085    -10.27
   CaCO3           5.673e-06   5.675e-06    -5.246    -5.246     0.000    -14.71
   CaHCO3+         5.596e-06   5.332e-06    -5.252    -5.273    -0.021      8.14
   (CO2)2          3.913e-12   3.915e-12   -11.407   -11.407     0.000     66.09
Ca            7.326e-04
   Ca+2            7.211e-04   5.931e-04    -3.142    -3.227    -0.085    -18.85
   CaCO3           5.673e-06   5.675e-06    -5.246    -5.246     0.000    -14.71
   CaHCO3+         5.596e-06   5.332e-06    -5.252    -5.273    -0.021      8.14
   CaHPO4          1.646e-07   1.646e-07    -6.784    -6.783     0.000     (0)  
   CaPO4-          5.354e-08   5.099e-08    -7.271    -7.292    -0.021     (0)  
   CaOH+           2.265e-08   2.155e-08    -7.645    -7.667    -0.022     (0)  
   CaH2PO4+        6.809e-10   6.485e-10    -9.167    -9.188    -0.021     (0)  
F             2.712e-10
   F-              2.712e-10   2.580e-10    -9.567    -9.588    -0.022     -2.26
   HF              1.155e-15   1.156e-15   -14.937   -14.937     0.000     10.74
   HF2-            9.102e-25   8.662e-25   -24.041   -24.062    -0.022     19.94
H(0)          4.891e-15
   H2              2.445e-15   2.447e-15   -14.612   -14.611     0.000     28.65
O(0)          0.000e+00
   O2              0.000e+00   0.000e+00   -71.964   -71.964     0.000     27.49
P             1.320e-06
   HPO4-2          1.026e-06   8.429e-07    -5.989    -6.074    -0.085      6.98
[...]
   H2              2.452e-15   2.473e-15   -14.611   -14.607     0.004     28.65
O(0)          0.000e+00
   O2              0.000e+00   0.000e+00   -71.978   -71.974     0.004     27.49
P             3.221e-04
   H2PO4-          2.407e-04   2.046e-04    -3.619    -3.689    -0.071     33.84
   CaHPO4          3.004e-05   3.030e-05    -4.522    -4.519     0.004     (0)  
   HPO4-2          2.855e-05   1.472e-05    -4.544    -4.832    -0.287      7.42
   CaH2PO4+        2.275e-05   1.934e-05    -4.643    -4.713    -0.071     (0)  
   CaPO4-          6.810e-08   5.789e-08    -7.167    -7.237    -0.071     (0)  
   H3PO4           1.597e-08   1.611e-08    -7.797    -7.793     0.004     45.31
   PO4-3           2.483e-11   5.198e-12   -10.605   -11.284    -0.679    -20.42

------------------------------Saturation indices-------------------------------

  Phase               SI** log IAP   log K(273 K,   1 atm)

  Aragonite        -0.16     -8.38   -8.22  CaCO3
  Calcite           0.00     -8.38   -8.38  CaCO3
  CH4(g)          -17.10    -19.57   -2.47  CH4
  CO2(g)           -0.12     -1.23   -1.11  CO2	 Pressure   0.8 atm, phi 0.995
  Fluorapatite      0.00    -56.67  -56.67  Ca5(F)(PO4)3
  Fluorite        -14.84    -25.80  -10.96  CaF2
  H2(g)           -11.60    -14.61   -3.01  H2
  H2O(g)           -2.21     -0.00    2.21  H2O
  Hydroxyapatite    0.00     -1.00   -1.00  Ca5(PO4)3OH
  Hydroxylapatite   4.90    -53.68  -58.58  Ca5(OH)(PO4)3
  O2(g)           -69.32    -71.97   -2.66  O2

**For a gas, SI = log10(fugacity). Fugacity = pressure * phi / 1 atm.
  For ideal gases, phi = 1.

------------------
End of simulation.
------------------

-------------------------------------
Reading input data for simulation 99.
-------------------------------------

	USE SOLUTION 1
	 EQUILIBRIUM_PHASES 1
	 CO2(g)    -0.08 100
	 Hydroxyapatite 0 10 dissolve_only
	 Fluorapatite 0 10 dissolve_only
	 Calcite 0 10 dissolve_only
	 REACTION_TEMPERATURE 1
	 0
	 END
-----------------------------------------
Beginning of batch-reaction calculations.
-----------------------------------------

Reaction step 1.

Using solution 1.	
Using pure phase assemblage 1.	
Using temperature 1.	

-------------------------------Phase assemblage--------------------------------

                                                      Moles in assemblage
Phase               SI  log IAP  log K(T, P)   Initial       Final       Delta

CO2(g)           -0.08    -1.19     -1.11    1.000e+02   9.992e+01  -7.760e-02
Calcite           0.00    -8.38     -8.38    1.000e+01   9.987e+00  -1.291e-02
Fluorapatite     -0.00   -56.67    -56.67    1.000e+01   1.000e+01   9.820e-11
Hydroxyapatite   -0.00    -1.00     -1.00    1.000e+01   1.000e+01  -1.174e-04

-----------------------------Solution composition------------------------------

	Elements           Molality       Moles

	C                 9.053e-02   9.051e-02
	Ca                1.350e-02   1.350e-02
	F                 1.796e-12   1.796e-12
	P                 3.524e-04   3.523e-04

----------------------------Description of solution----------------------------

                                       pH  =   6.105      Charge balance
                                       pe  =  -0.320      Adjusted to redox equilibrium
      Specific Conductance (µS/cm,   0°C)  = 1080
                          Density (g/cm³)  =   1.00239
                               Volume (L)  =   1.00237
                        Activity of water  =   0.998
                 Ionic strength (mol/kgw)  =   3.822e-02
                       Mass of water (kg)  =   9.998e-01
                 Total alkalinity (eq/kg)  =   2.665e-02
                       Total CO2 (mol/kg)  =   9.053e-02
                         Temperature (°C)  =   0.00
                  Electrical balance (eq)  =  -1.217e-09
 Percent error, 100*(Cat-|An|)/(Cat+|An|)  =  -0.00
                               Iterations  =  17
                                  Total H  = 1.110126e+02
                                  Total O  = 5.570167e+01

----------------------------Distribution of species----------------------------

                                               Log       Log       Log    mole V
   Species          Molality    Activity  Molality  Activity     Gamma   cm³/mol

   H+              9.036e-07   7.851e-07    -6.044    -6.105    -0.061      0.00
   OH-             1.755e-09   1.465e-09    -8.756    -8.834    -0.079     -6.00
   H2O             5.551e+01   9.982e-01     1.744    -0.001     0.000     18.02
C(-4)         3.065e-20
   CH4             3.065e-20   3.092e-20   -19.514   -19.510     0.004     32.63
C(4)          9.053e-02
   CO2             6.389e-02   6.446e-02    -1.195    -1.191     0.004     33.05
   HCO3-           2.550e-02   2.163e-02    -1.593    -1.665    -0.071     21.63
   CaHCO3+         1.076e-03   9.165e-04    -2.968    -3.038    -0.069      8.22
   (CO2)2          2.909e-05   2.935e-05    -4.536    -4.532     0.004     66.09
   CaCO3           5.626e-06   5.675e-06    -5.250    -5.246     0.004    -14.71
   CO3-2           1.251e-06   6.480e-07    -5.903    -6.188    -0.286     -9.74
Ca            1.350e-02
   Ca+2            1.236e-02   6.412e-03    -1.908    -2.193    -0.285    -18.53
   CaHCO3+         1.076e-03   9.165e-04    -2.968    -3.038    -0.069      8.22
   CaHPO4          3.192e-05   3.220e-05    -4.496    -4.492     0.004     (0)  
   CaH2PO4+        2.570e-05   2.180e-05    -4.590    -4.661    -0.071     (0)  
   CaCO3           5.626e-06   5.675e-06    -5.250    -5.246     0.004    -14.71
   CaPO4-          6.840e-08   5.802e-08    -7.165    -7.236    -0.071     (0)  
   CaOH+           1.607e-09   1.353e-09    -8.794    -8.869    -0.075     (0)  
F             1.796e-12
   F-              1.795e-12   1.498e-12   -11.746   -11.824    -0.079     -2.15
   HF              1.144e-15   1.154e-15   -14.942   -14.938     0.004     10.74
   HF2-            5.963e-27   5.022e-27   -26.225   -26.299    -0.075     20.05
H(0)          4.959e-15
   H2              2.479e-15   2.501e-15   -14.606   -14.602     0.004     28.65
O(0)          0.000e+00
   O2              0.000e+00   0.000e+00   -71.988   -71.984     0.004     27.49
P             3.524e-04
   H2PO4-          2.649e-04   2.247e-04    -3.577    -3.648    -0.071     33.85
   CaHPO4          3.192e-05   3.220e-05    -4.496    -4.492     0.004     (0)  
   HPO4-2          2.983e-05   1.525e-05    -4.525    -4.817    -0.291      7.43
   CaH2PO4+        2.570e-05   2.180e-05    -4.590    -4.661    -0.071     (0)  
   CaPO4-          6.840e-08   5.802e-08    -7.165    -7.236    -0.071     (0)  
   H3PO4           1.859e-08   1.876e-08    -7.731    -7.727     0.004     45.31
   PO4-3           2.479e-11   5.076e-12   -10.606   -11.294    -0.689    -20.40

------------------------------Saturation indices-------------------------------

  Phase               SI** log IAP   log K(273 K,   1 atm)

  Aragonite        -0.16     -8.38   -8.22  CaCO3
  Calcite           0.00     -8.38   -8.38  CaCO3
  CH4(g)          -17.04    -19.51   -2.47  CH4
  CO2(g)           -0.08     -1.19   -1.11  CO2	 Pressure   0.8 atm, phi 0.994
  Fluorapatite     -0.00    -56.67  -56.67  Ca5(F)(PO4)3
  Fluorite        -14.88    -25.84  -10.96  CaF2
  H2(g)           -11.59    -14.60   -3.01  H2
  H2O(g)           -2.21     -0.00    2.21  H2O
  Hydroxyapatite   -0.00     -1.00   -1.00  Ca5(PO4)3OH
  Hydroxylapatite   4.90    -53.68  -58.58  Ca5(OH)(PO4)3
  O2(g)           -69.33    -71.98   -2.66  O2

**For a gas, SI = log10(fugacity). Fugacity = pressure * phi / 1 atm.
  For ideal gases, phi = 1.

------------------
End of simulation.
------------------

--------------------------------------
Reading input data for simulation 100.
--------------------------------------

	USE SOLUTION 1
	 EQUILIBRIUM_PHASES 1
	 CO2(g)    -0.04 100
	 Hydroxyapatite 0 10 dissolve_only
	 Fluorapatite 0 10 dissolve_only
	 Calcite 0 10 dissolve_only
	 REACTION_TEMPERATURE 1
	 0
	 END
-----------------------------------------
Beginning of batch-reaction calculations.
-----------------------------------------

Reaction step 1.

Using solution 1.	
Using pure phase assemblage 1.	
Using temperature 1.	

-------------------------------Phase assemblage--------------------------------

                                                      Moles in assemblage
Phase               SI  log IAP  log K(T, P)   Initial       Final       Delta

CO2(g)           -0.04    -1.15     -1.11    1.000e+02   9.992e+01  -8.423e-02
Calcite           0.00    -8.38     -8.38    1.000e+01   9.987e+00  -1.336e-02
Fluorapatite      0.00   -56.67    -56.67    1.000e+01   1.000e+01   9.830e-11
Hydroxyapatite    0.00    -1.00     -1.00    1.000e+01   1.000e+01  -1.286e-04

-----------------------------Solution composition------------------------------

	Elements           Molality       Moles

	C                 9.762e-02   9.759e-02
	Ca                1.401e-02   1.400e-02
	F                 1.698e-12   1.698e-12
	P                 3.858e-04   3.857e-04

----------------------------Description of solution----------------------------

                                       pH  =   6.080      Charge balance
                                       pe  =  -0.289      Adjusted to redox equilibrium
      Specific Conductance (µS/cm,   0°C)  = 1116
                          Density (g/cm³)  =   1.00253
                               Volume (L)  =   1.00257
                        Activity of water  =   0.998
                 Ionic strength (mol/kgw)  =   3.959e-02
                       Mass of water (kg)  =   9.997e-01
                 Total alkalinity (eq/kg)  =   2.763e-02
                       Total CO2 (mol/kg)  =   9.762e-02
                         Temperature (°C)  =   0.00
                  Electrical balance (eq)  =  -1.216e-09
 Percent error, 100*(Cat-|An|)/(Cat+|An|)  =  -0.00
                               Iterations  =  17
                                  Total H  = 1.110126e+02
                                  Total O  = 5.571644e+01

----------------------------Distribution of species----------------------------

                                               Log       Log       Log    mole V
   Species          Molality    Activity  Molality  Activity     Gamma   cm³/mol

   H+              9.597e-07   8.325e-07    -6.018    -6.080    -0.062      0.00
   OH-             1.660e-09   1.381e-09    -8.780    -8.860    -0.080     -6.00
   H2O             5.551e+01   9.981e-01     1.744    -0.001     0.000     18.02
C(-4)         3.007e-20
   CH4             3.007e-20   3.035e-20   -19.522   -19.518     0.004     32.63
C(4)          9.762e-02
   CO2             6.999e-02   7.064e-02    -1.155    -1.151     0.004     33.05
   HCO3-           2.640e-02   2.235e-02    -1.578    -1.651    -0.072     21.63
   CaHCO3+         1.143e-03   9.718e-04    -2.942    -3.012    -0.070      8.22
   (CO2)2          3.492e-05   3.524e-05    -4.457    -4.453     0.004     66.09
   CaCO3           5.624e-06   5.675e-06    -5.250    -5.246     0.004    -14.71
   CO3-2           1.230e-06   6.314e-07    -5.910    -6.200    -0.290     -9.73
Ca            1.401e-02
   Ca+2            1.279e-02   6.581e-03    -1.893    -2.182    -0.289    -18.52
   CaHCO3+         1.143e-03   9.718e-04    -2.942    -3.012    -0.070      8.22
   CaHPO4          3.392e-05   3.423e-05    -4.470    -4.466     0.004     (0)  
   CaH2PO4+        2.903e-05   2.457e-05    -4.537    -4.610    -0.072     (0)  
   CaCO3           5.624e-06   5.675e-06    -5.250    -5.246     0.004    -14.71
   CaPO4-          6.871e-08   5.816e-08    -7.163    -7.235    -0.072     (0)  
   CaOH+           1.558e-09   1.309e-09    -8.807    -8.883    -0.076     (0)  
F             1.698e-12
   F-              1.697e-12   1.413e-12   -11.770   -11.850    -0.080     -2.15
   HF              1.143e-15   1.154e-15   -14.942   -14.938     0.004     10.74
   HF2-            5.635e-27   4.734e-27   -26.249   -26.325    -0.076     20.05
H(0)          4.822e-15
   H2              2.411e-15   2.433e-15   -14.618   -14.614     0.004     28.65
O(0)          0.000e+00
   O2              0.000e+00   0.000e+00   -71.964   -71.961     0.004     27.49
P             3.858e-04
   H2PO4-          2.915e-04   2.468e-04    -3.535    -3.608    -0.072     33.85
   CaHPO4          3.392e-05   3.423e-05    -4.470    -4.466     0.004     (0)  
   HPO4-2          3.117e-05   1.579e-05    -4.506    -4.801    -0.295      7.44
   CaH2PO4+        2.903e-05   2.457e-05    -4.537    -4.610    -0.072     (0)  
   CaPO4-          6.871e-08   5.816e-08    -7.163    -7.235    -0.072     (0)  
   H3PO4           2.165e-08   2.185e-08    -7.665    -7.661     0.004     45.31
   PO4-3           2.476e-11   4.958e-12   -10.606   -11.305    -0.698    -20.38

------------------------------Saturation indices-------------------------------

  Phase               SI** log IAP   log K(273 K,   1 atm)

  Aragonite        -0.16     -8.38   -8.22  CaCO3
  Calcite           0.00     -8.38   -8.38  CaCO3
  CH4(g)          -17.04    -19.52   -2.47  CH4
  CO2(g)           -0.04     -1.15   -1.11  CO2	 Pressure   0.9 atm, phi 0.993
  Fluorapatite      0.00    -56.67  -56.67  Ca5(F)(PO4)3
  Fluorite        -14.92    -25.88  -10.96  CaF2
  H2(g)           -11.60    -14.61   -3.01  H2
  H2O(g)           -2.21     -0.00    2.21  H2O
  Hydroxyapatite    0.00     -1.00   -1.00  Ca5(PO4)3OH
  Hydroxylapatite   4.90    -53.68  -58.58  Ca5(OH)(PO4)3
  O2(g)           -69.30    -71.96   -2.66  O2

**For a gas, SI = log10(fugacity). Fugacity = pressure * phi / 1 atm.
  For ideal gases, phi = 1.

------------------
End of simulation.
------------------

--------------------------------------
Reading input data for simulation 101.
--------------------------------------

	USE SOLUTION 1
	 EQUILIBRIUM_PHASES 1
	 CO2(g)     0.00 100
	 Hydroxyapatite 0 10 dissolve_only
	 Fluorapatite 0 10 dissolve_only
	 Calcite 0 10 dissolve_only
	 REACTION_TEMPERATURE 1
	 0
	 END
-----------------------------------------
Beginning of batch-reaction calculations.
-----------------------------------------

Reaction step 1.

Using solution 1.	
Using pure phase assemblage 1.	
Using temperature 1.	

-------------------------------Phase assemblage--------------------------------

                                                      Moles in assemblage
Phase               SI  log IAP  log K(T, P)   Initial       Final       Delta

CO2(g)           -0.00    -1.11     -1.11    1.000e+02   9.991e+01  -9.147e-02
Calcite           0.00    -8.38     -8.38    1.000e+01   9.986e+00  -1.382e-02
Fluorapatite      0.00   -56.67    -56.67    1.000e+01   1.000e+01   9.839e-11
Hydroxyapatite    0.00    -1.00     -1.00    1.000e+01   1.000e+01  -1.408e-04

-----------------------------Solution composition------------------------------

	Elements           Molality       Moles

	C                 1.053e-01   1.053e-01
	Ca                1.453e-02   1.453e-02
	F                 1.606e-12   1.605e-12
	P                 4.224e-04   4.223e-04

----------------------------Description of solution----------------------------

                                       pH  =   6.054      Charge balance
                                       pe  =  -0.268      Adjusted to redox equilibrium
      Specific Conductance (µS/cm,   0°C)  = 1153
                          Density (g/cm³)  =   1.00267
                               Volume (L)  =   1.00280
                        Activity of water  =   0.998
                 Ionic strength (mol/kgw)  =   4.101e-02
                       Mass of water (kg)  =   9.997e-01
                 Total alkalinity (eq/kg)  =   2.864e-02
                       Total CO2 (mol/kg)  =   1.053e-01
                         Temperature (°C)  =   0.00
                  Electrical balance (eq)  =  -1.216e-09
 Percent error, 100*(Cat-|An|)/(Cat+|An|)  =  -0.00
                               Iterations  =  17
                                  Total H  = 1.110126e+02
                                  Total O  = 5.573246e+01

----------------------------Distribution of species----------------------------

                                               Log       Log       Log    mole V
   Species          Molality    Activity  Molality  Activity     Gamma   cm³/mol

   H+              1.019e-06   8.827e-07    -5.992    -6.054    -0.062      0.00
   OH-             1.569e-09   1.303e-09    -8.804    -8.885    -0.081     -6.00
   H2O             5.551e+01   9.980e-01     1.744    -0.001     0.000     18.02
C(-4)         3.626e-20
   CH4             3.626e-20   3.660e-20   -19.441   -19.437     0.004     32.63
C(4)          1.053e-01
   CO2             7.667e-02   7.740e-02    -1.115    -1.111     0.004     33.05
   HCO3-           2.734e-02   2.309e-02    -1.563    -1.637    -0.073     21.64
   CaHCO3+         1.214e-03   1.030e-03    -2.916    -2.987    -0.071      8.22
   (CO2)2          4.192e-05   4.231e-05    -4.378    -4.374     0.004     66.09
   CaCO3           5.622e-06   5.675e-06    -5.250    -5.246     0.004    -14.71
   CO3-2           1.209e-06   6.153e-07    -5.917    -6.211    -0.293     -9.71
Ca            1.453e-02
   Ca+2            1.324e-02   6.753e-03    -1.878    -2.171    -0.292    -18.52
   CaHCO3+         1.214e-03   1.030e-03    -2.916    -2.987    -0.071      8.22
   CaHPO4          3.604e-05   3.638e-05    -4.443    -4.439     0.004     (0)  
   CaH2PO4+        3.279e-05   2.769e-05    -4.484    -4.558    -0.073     (0)  
   CaCO3           5.622e-06   5.675e-06    -5.250    -5.246     0.004    -14.71
   CaPO4-          6.902e-08   5.829e-08    -7.161    -7.234    -0.073     (0)  
   CaOH+           1.511e-09   1.267e-09    -8.821    -8.897    -0.077     (0)  
F             1.606e-12
   F-              1.605e-12   1.332e-12   -11.795   -11.875    -0.081     -2.14
   HF              1.143e-15   1.153e-15   -14.942   -14.938     0.004     10.74
   HF2-            5.325e-27   4.464e-27   -26.274   -26.350    -0.077     20.06
H(0)          4.937e-15
   H2              2.469e-15   2.492e-15   -14.608   -14.603     0.004     28.65
O(0)          0.000e+00
   O2              0.000e+00   0.000e+00   -71.986   -71.981     0.004     27.49
P             4.224e-04
   H2PO4-          3.209e-04   2.710e-04    -3.494    -3.567    -0.073     33.85
   CaHPO4          3.604e-05   3.638e-05    -4.443    -4.439     0.004     (0)  
   CaH2PO4+        3.279e-05   2.769e-05    -4.484    -4.558    -0.073     (0)  
   HPO4-2          3.258e-05   1.636e-05    -4.487    -4.786    -0.299      7.45
   CaPO4-          6.902e-08   5.829e-08    -7.161    -7.234    -0.073     (0)  
   H3PO4           2.520e-08   2.544e-08    -7.599    -7.594     0.004     45.31
   PO4-3           2.474e-11   4.843e-12   -10.607   -11.315    -0.708    -20.35

------------------------------Saturation indices-------------------------------

  Phase               SI** log IAP   log K(273 K,   1 atm)

  Aragonite        -0.16     -8.38   -8.22  CaCO3
  Calcite           0.00     -8.38   -8.38  CaCO3
  CH4(g)          -16.96    -19.44   -2.47  CH4
  CO2(g)           -0.00     -1.11   -1.11  CO2	 Pressure   1.0 atm, phi 0.993
  Fluorapatite      0.00    -56.67  -56.67  Ca5(F)(PO4)3
  Fluorite        -14.96    -25.92  -10.96  CaF2
  H2(g)           -11.59    -14.60   -3.01  H2
  H2O(g)           -2.21     -0.00    2.21  H2O
  Hydroxyapatite    0.00     -1.00   -1.00  Ca5(PO4)3OH
  Hydroxylapatite   4.90    -53.68  -58.58  Ca5(OH)(PO4)3
  O2(g)           -69.32    -71.98   -2.66  O2

**For a gas, SI = log10(fugacity). Fugacity = pressure * phi / 1 atm.
  For ideal gases, phi = 1.

------------------
End of simulation.
------------------

--------------------------------------
Reading input data for simulation 102.
--------------------------------------

----------------------------------
End of Run after 0.248566 Seconds.
----------------------------------

