   Input file: ../examples/StreamModel_T25.pqi
  Output file: ../examples/StreamModel_T25.pqi.out
Database file: ../database/phreeqc-extended.dat

------------------
Reading data base.
------------------

	SOLUTION_MASTER_SPECIES
	SOLUTION_SPECIES
	PHASES
	EXCHANGE_MASTER_SPECIES
	EXCHANGE_SPECIES
	SURFACE_MASTER_SPECIES
	SURFACE_SPECIES
	RATES
	END
------------------------------------
Reading input data for simulation 1.
------------------------------------

	DATABASE ../database/phreeqc-extended.dat
	SOLUTION 1
	    temp      25
	    pH        7
	    pe        4
	    redox     pe
	    units     mmol/kgw
	    density   1
	    water    1 # kg
	SELECTED_OUTPUT 1
	    file                 ../examples/StreamModel_T25.sel
	    reset                false
	    temperature          true
	    ph          true
	    totals               P
	    saturation_indices   CO2(g)
	USE SOLUTION 1
	 EQUILIBRIUM_PHASES 1
	 CO2(g)    -4.00 100
	 Hydroxyapatite 0 10 dissolve_only
	 Fluorapatite 0 10 dissolve_only
	 Calcite 0 10 dissolve_only
	 REACTION_TEMPERATURE 1
	 25
	 END
-------------------------------------------
Beginning of initial solution calculations.
-------------------------------------------

Initial solution 1.	

-----------------------------Solution composition------------------------------

	Elements           Molality       Moles

	Pure water     

----------------------------Description of solution----------------------------

                                       pH  =   7.000    
                                       pe  =   4.000    
      Specific Conductance (µS/cm,  25°C)  = 0
                          Density (g/cm³)  =   0.99704
                               Volume (L)  =   1.00297
                        Activity of water  =   1.000
                 Ionic strength (mol/kgw)  =   1.007e-07
                       Mass of water (kg)  =   1.000e+00
                 Total alkalinity (eq/kg)  =   1.217e-09
                         Temperature (°C)  =  25.00
                  Electrical balance (eq)  =  -1.217e-09
 Percent error, 100*(Cat-|An|)/(Cat+|An|)  =  -0.60
                               Iterations  =   0
                                  Total H  = 1.110124e+02
                                  Total O  = 5.550622e+01

----------------------------Distribution of species----------------------------

                                               Log       Log       Log    mole V
   Species          Molality    Activity  Molality  Activity     Gamma   cm³/mol

   OH-             1.013e-07   1.012e-07    -6.995    -6.995    -0.000     -4.14
   H+              1.001e-07   1.000e-07    -7.000    -7.000    -0.000      0.00
   H2O             5.551e+01   1.000e+00     1.744     0.000     0.000     18.07
H(0)          1.416e-25
   H2              7.079e-26   7.079e-26   -25.150   -25.150     0.000     28.61
O(0)          0.000e+00
   O2              0.000e+00   0.000e+00   -42.080   -42.080     0.000     30.40

------------------------------Saturation indices-------------------------------

  Phase               SI** log IAP   log K(298 K,   1 atm)

  H2(g)           -22.05    -25.15   -3.10  H2
  H2O(g)           -1.50      0.00    1.50  H2O
  O2(g)           -39.19    -42.08   -2.89  O2

**For a gas, SI = log10(fugacity). Fugacity = pressure * phi / 1 atm.
  For ideal gases, phi = 1.

-----------------------------------------
Beginning of batch-reaction calculations.
-----------------------------------------

Reaction step 1.

Using solution 1.	
Using pure phase assemblage 1.	
Using temperature 1.	

-------------------------------Phase assemblage--------------------------------

                                                      Moles in assemblage
Phase               SI  log IAP  log K(T, P)   Initial       Final       Delta

CO2(g)           -4.00    -5.47     -1.47    1.000e+02   1.000e+02  -3.187e-04
Calcite           0.00    -8.48     -8.48    1.000e+01   1.000e+01  -3.381e-04
Fluorapatite      0.00   -59.60    -59.60    1.000e+01   1.000e+01  -3.021e-11
Hydroxyapatite    0.00    -3.42     -3.42    1.000e+01   1.000e+01  -9.771e-08

-----------------------------Solution composition------------------------------

	Elements           Molality       Moles

	C                 6.568e-04   6.568e-04
	Ca                3.385e-04   3.385e-04
	F                 3.021e-11   3.021e-11
	P                 2.932e-07   2.932e-07

----------------------------Description of solution----------------------------

                                       pH  =   8.606      Charge balance
                                       pe  =  -2.875      Adjusted to redox equilibrium
      Specific Conductance (µS/cm,  25°C)  = 66
                          Density (g/cm³)  =   0.99709
                               Volume (L)  =   1.00297
                        Activity of water  =   1.000
                 Ionic strength (mol/kgw)  =   1.008e-03
                       Mass of water (kg)  =   1.000e+00
                 Total alkalinity (eq/kg)  =   6.768e-04
                       Total CO2 (mol/kg)  =   6.568e-04
                         Temperature (°C)  =  25.00
                  Electrical balance (eq)  =  -1.221e-09
 Percent error, 100*(Cat-|An|)/(Cat+|An|)  =  -0.00
                               Iterations  =  15
                                  Total H  = 1.110124e+02
                                  Total O  = 5.550787e+01

----------------------------Distribution of species----------------------------

                                               Log       Log       Log    mole V
   Species          Molality    Activity  Molality  Activity     Gamma   cm³/mol

   OH-             4.231e-06   4.081e-06    -5.374    -5.389    -0.016     -4.11
   H+              2.566e-09   2.480e-09    -8.591    -8.606    -0.015      0.00
   H2O             5.551e+01   1.000e+00     1.744    -0.000     0.000     18.07
C(-4)         1.188e-27
   CH4             1.188e-27   1.189e-27   -26.925   -26.925     0.000     35.46
C(4)          6.568e-04
   HCO3-           6.322e-04   6.103e-04    -3.199    -3.214    -0.015     24.68
   CO3-2           1.329e-05   1.154e-05    -4.876    -4.938    -0.061     -5.27
   CaCO3           5.564e-06   5.565e-06    -5.255    -5.255     0.000    -14.60
   CO2             3.402e-06   3.403e-06    -5.468    -5.468     0.000     34.43
   CaHCO3+         2.315e-06   2.235e-06    -5.636    -5.651    -0.015      9.67
   (CO2)2          2.125e-13   2.125e-13   -12.673   -12.673     0.000     68.87
Ca            3.385e-04
   Ca+2            3.306e-04   2.870e-04    -3.481    -3.542    -0.061    -18.14
   CaCO3           5.564e-06   5.565e-06    -5.255    -5.255     0.000    -14.60
   CaHCO3+         2.315e-06   2.235e-06    -5.636    -5.651    -0.015      9.67
   CaHPO4          3.061e-08   3.062e-08    -7.514    -7.514     0.000     (0)  
   CaPO4-          3.026e-08   2.921e-08    -7.519    -7.534    -0.015     (0)  
   CaOH+           1.991e-08   1.921e-08    -7.701    -7.717    -0.016     (0)  
   CaH2PO4+        5.912e-11   5.707e-11   -10.228   -10.244    -0.015     (0)  
F             3.021e-11
   F-              3.021e-11   2.915e-11   -10.520   -10.535    -0.016     -1.32
   HF              1.084e-16   1.084e-16   -15.965   -15.965     0.000     12.50
   HF2-            1.256e-26   1.212e-26   -25.901   -25.916    -0.016     22.06
H(0)          4.888e-15
   H2              2.444e-15   2.445e-15   -14.612   -14.612     0.000     28.61
O(0)          0.000e+00
   O2              0.000e+00   0.000e+00   -63.157   -63.156     0.000     30.40
P             2.932e-07
   HPO4-2          2.242e-07   1.946e-07    -6.649    -6.711    -0.062      6.71
   CaHPO4          3.061e-08   3.062e-08    -7.514    -7.514     0.000     (0)  
   CaPO4-          3.026e-08   2.921e-08    -7.519    -7.534    -0.015     (0)  
   H2PO4-          8.050e-09   7.771e-09    -8.094    -8.110    -0.015     33.21
   CaH2PO4+        5.912e-11   5.707e-11   -10.228   -10.244    -0.015     (0)  
   PO4-3           4.881e-11   3.537e-11   -10.311   -10.451    -0.140    -23.24
   H3PO4           2.837e-15   2.837e-15   -14.547   -14.547     0.000     47.41

------------------------------Saturation indices-------------------------------

  Phase               SI** log IAP   log K(298 K,   1 atm)

  Aragonite        -0.14     -8.48   -8.34  CaCO3
  Calcite           0.00     -8.48   -8.48  CaCO3
  CH4(g)          -24.12    -26.92   -2.80  CH4
  CO2(g)           -4.00     -5.47   -1.47  CO2	 Pressure   0.0 atm, phi 1.000
  Fluorapatite      0.00    -59.60  -59.60  Ca5(F)(PO4)3
  Fluorite        -14.01    -24.61  -10.60  CaF2
  H2(g)           -11.51    -14.61   -3.10  H2
  H2O(g)           -1.50     -0.00    1.50  H2O
  Hydroxyapatite    0.00     -3.42   -3.42  Ca5(PO4)3OH
  Hydroxylapatite   4.06    -54.45  -58.52  Ca5(OH)(PO4)3
  O2(g)           -60.26    -63.16   -2.89  O2

**For a gas, SI = log10(fugacity). Fugacity = pressure * phi / 1 atm.
  For ideal gases, phi = 1.

------------------
End of simulation.
------------------

------------------------------------
Reading input data for simulation 2.
------------------------------------

	USE SOLUTION 1
	 EQUILIBRIUM_PHASES 1
	 CO2(g)    -3.96 100
	 Hydroxyapatite 0 10 dissolve_only
	 Fluorapatite 0 10 dissolve_only
	 Calcite 0 10 dissolve_only
	 REACTION_TEMPERATURE 1
	 25
	 END
-----------------------------------------
Beginning of batch-reaction calculations.
-----------------------------------------

Reaction step 1.

Using solution 1.	
Using pure phase assemblage 1.	
Using temperature 1.	

-------------------------------Phase assemblage--------------------------------

                                                      Moles in assemblage
Phase               SI  log IAP  log K(T, P)   Initial       Final       Delta

CO2(g)           -3.96    -5.43     -1.47    1.000e+02   1.000e+02  -3.298e-04
Calcite           0.00    -8.48     -8.48    1.000e+01   1.000e+01  -3.482e-04
Fluorapatite      0.00   -59.60    -59.60    1.000e+01   1.000e+01   7.153e-11
Hydroxyapatite    0.00    -3.42     -3.42    1.000e+01   1.000e+01  -1.014e-07

-----------------------------Solution composition------------------------------

	Elements           Molality       Moles

	C                 6.779e-04   6.779e-04
	Ca                3.487e-04   3.487e-04
	F                 2.847e-11   2.847e-11
	P                 3.041e-07   3.041e-07

----------------------------Description of solution----------------------------

                                       pH  =   8.580      Charge balance
                                       pe  =  -2.849      Adjusted to redox equilibrium
      Specific Conductance (µS/cm,  25°C)  = 68
                          Density (g/cm³)  =   0.99709
                               Volume (L)  =   1.00297
                        Activity of water  =   1.000
                 Ionic strength (mol/kgw)  =   1.037e-03
                       Mass of water (kg)  =   1.000e+00
                 Total alkalinity (eq/kg)  =   6.970e-04
                       Total CO2 (mol/kg)  =   6.779e-04
                         Temperature (°C)  =  25.00
                  Electrical balance (eq)  =  -1.217e-09
 Percent error, 100*(Cat-|An|)/(Cat+|An|)  =  -0.00
                               Iterations  =  16
                                  Total H  = 1.110124e+02
                                  Total O  = 5.550792e+01

----------------------------Distribution of species----------------------------

                                               Log       Log       Log    mole V
   Species          Molality    Activity  Molality  Activity     Gamma   cm³/mol

   OH-             3.987e-06   3.844e-06    -5.399    -5.415    -0.016     -4.11
   H+              2.726e-09   2.633e-09    -8.565    -8.580    -0.015      0.00
   H2O             5.551e+01   1.000e+00     1.744    -0.000     0.000     18.07
C(-4)         1.304e-27
   CH4             1.304e-27   1.304e-27   -26.885   -26.885     0.000     35.46
C(4)          6.779e-04
   HCO3-           6.532e-04   6.302e-04    -3.185    -3.200    -0.016     24.68
   CO3-2           1.295e-05   1.123e-05    -4.888    -4.950    -0.062     -5.27
   CaCO3           5.564e-06   5.565e-06    -5.255    -5.255     0.000    -14.60
   CO2             3.730e-06   3.731e-06    -5.428    -5.428     0.000     34.43
   CaHCO3+         2.459e-06   2.373e-06    -5.609    -5.625    -0.015      9.67
   (CO2)2          2.555e-13   2.555e-13   -12.593   -12.593     0.000     68.87
Ca            3.487e-04
   Ca+2            3.406e-04   2.951e-04    -3.468    -3.530    -0.062    -18.14
   CaCO3           5.564e-06   5.565e-06    -5.255    -5.255     0.000    -14.60
   CaHCO3+         2.459e-06   2.373e-06    -5.609    -5.625    -0.015      9.67
   CaHPO4          3.255e-08   3.256e-08    -7.487    -7.487     0.000     (0)  
   CaPO4-          3.032e-08   2.925e-08    -7.518    -7.534    -0.016     (0)  
   CaOH+           1.929e-08   1.860e-08    -7.715    -7.730    -0.016     (0)  
   CaH2PO4+        6.678e-11   6.443e-11   -10.175   -10.191    -0.016     (0)  
F             2.847e-11
   F-              2.847e-11   2.745e-11   -10.546   -10.561    -0.016     -1.31
   HF              1.084e-16   1.084e-16   -15.965   -15.965     0.000     12.50
   HF2-            1.184e-26   1.142e-26   -25.927   -25.942    -0.016     22.06
H(0)          4.889e-15
   H2              2.444e-15   2.445e-15   -14.612   -14.612     0.000     28.61
O(0)          0.000e+00
   O2              0.000e+00   0.000e+00   -63.157   -63.157     0.000     30.40
P             3.041e-07
   HPO4-2          2.323e-07   2.012e-07    -6.634    -6.696    -0.062      6.71
   CaHPO4          3.255e-08   3.256e-08    -7.487    -7.487     0.000     (0)  
   CaPO4-          3.032e-08   2.925e-08    -7.518    -7.534    -0.016     (0)  
   H2PO4-          8.844e-09   8.533e-09    -8.053    -8.069    -0.016     33.21
   CaH2PO4+        6.678e-11   6.443e-11   -10.175   -10.191    -0.016     (0)  
   PO4-3           4.776e-11   3.445e-11   -10.321   -10.463    -0.142    -23.24
   H3PO4           3.307e-15   3.308e-15   -14.481   -14.480     0.000     47.41

------------------------------Saturation indices-------------------------------

  Phase               SI** log IAP   log K(298 K,   1 atm)

  Aragonite        -0.14     -8.48   -8.34  CaCO3
  Calcite           0.00     -8.48   -8.48  CaCO3
  CH4(g)          -24.08    -26.88   -2.80  CH4
  CO2(g)           -3.96     -5.43   -1.47  CO2	 Pressure   0.0 atm, phi 1.000
  Fluorapatite      0.00    -59.60  -59.60  Ca5(F)(PO4)3
  Fluorite        -14.05    -24.65  -10.60  CaF2
  H2(g)           -11.51    -14.61   -3.10  H2
  H2O(g)           -1.50     -0.00    1.50  H2O
  Hydroxyapatite    0.00     -3.42   -3.42  Ca5(PO4)3OH
  Hydroxylapatite   4.06    -54.45  -58.52  Ca5(OH)(PO4)3
  O2(g)           -60.26    -63.16   -2.89  O2

**For a gas, SI = log10(fugacity). Fugacity = pressure * phi / 1 atm.
  For ideal gases, phi = 1.

------------------
End of simulation.
------------------

------------------------------------
Reading input data for simulation 3.
------------------------------------

	USE SOLUTION 1
	 EQUILIBRIUM_PHASES 1
	 CO2(g)    -3.92 100
	 Hydroxyapatite 0 10 dissolve_only
	 Fluorapatite 0 10 dissolve_only
	 Calcite 0 10 dissolve_only
	 REACTION_TEMPERATURE 1
	 25
	 END
-----------------------------------------
Beginning of batch-reaction calculations.
-----------------------------------------

Reaction step 1.

Using solution 1.	
Using pure phase assemblage 1.	
Using temperature 1.	

-------------------------------Phase assemblage--------------------------------

                                                      Moles in assemblage
Phase               SI  log IAP  log K(T, P)   Initial       Final       Delta

CO2(g)           -3.92    -5.39     -1.47    1.000e+02   1.000e+02  -3.411e-04
Calcite           0.00    -8.48     -8.48    1.000e+01   1.000e+01  -3.586e-04
Fluorapatite      0.00   -59.60    -59.60    1.000e+01   1.000e+01   7.317e-11
Hydroxyapatite    0.00    -3.42     -3.42    1.000e+01   1.000e+01  -1.052e-07

-----------------------------Solution composition------------------------------

	Elements           Molality       Moles

	C                 6.998e-04   6.998e-04
	Ca                3.591e-04   3.591e-04
	F                 2.683e-11   2.683e-11
	P                 3.155e-07   3.155e-07

----------------------------Description of solution----------------------------

                                       pH  =   8.554      Charge balance
                                       pe  =  -2.823      Adjusted to redox equilibrium
      Specific Conductance (µS/cm,  25°C)  = 69
                          Density (g/cm³)  =   0.99709
                               Volume (L)  =   1.00297
                        Activity of water  =   1.000
                 Ionic strength (mol/kgw)  =   1.068e-03
                       Mass of water (kg)  =   1.000e+00
                 Total alkalinity (eq/kg)  =   7.180e-04
                       Total CO2 (mol/kg)  =   6.998e-04
                         Temperature (°C)  =  25.00
                  Electrical balance (eq)  =  -1.217e-09
 Percent error, 100*(Cat-|An|)/(Cat+|An|)  =  -0.00
                               Iterations  =  16
                                  Total H  = 1.110124e+02
                                  Total O  = 5.550798e+01

----------------------------Distribution of species----------------------------

                                               Log       Log       Log    mole V
   Species          Molality    Activity  Molality  Activity     Gamma   cm³/mol

   OH-             3.757e-06   3.620e-06    -5.425    -5.441    -0.016     -4.11
   H+              2.895e-09   2.796e-09    -8.538    -8.554    -0.015      0.00
   H2O             5.551e+01   1.000e+00     1.744    -0.000     0.000     18.07
C(-4)         1.429e-27
   CH4             1.429e-27   1.429e-27   -26.845   -26.845     0.000     35.46
C(4)          6.998e-04
   HCO3-           6.749e-04   6.508e-04    -3.171    -3.187    -0.016     24.68
   CO3-2           1.262e-05   1.092e-05    -4.899    -4.962    -0.063     -5.27
   CaCO3           5.563e-06   5.565e-06    -5.255    -5.255     0.000    -14.60
   CO2             4.090e-06   4.091e-06    -5.388    -5.388     0.000     34.43
   CaHCO3+         2.612e-06   2.520e-06    -5.583    -5.599    -0.016      9.67
   (CO2)2          3.071e-13   3.072e-13   -12.513   -12.513     0.000     68.87
Ca            3.591e-04
   Ca+2            3.509e-04   3.034e-04    -3.455    -3.518    -0.063    -18.14
   CaCO3           5.563e-06   5.565e-06    -5.255    -5.255     0.000    -14.60
   CaHCO3+         2.612e-06   2.520e-06    -5.583    -5.599    -0.016      9.67
   CaHPO4          3.461e-08   3.462e-08    -7.461    -7.461     0.000     (0)  
   CaPO4-          3.038e-08   2.930e-08    -7.517    -7.533    -0.016     (0)  
   CaOH+           1.869e-08   1.801e-08    -7.728    -7.744    -0.016     (0)  
   CaH2PO4+        7.543e-11   7.274e-11   -10.122   -10.138    -0.016     (0)  
F             2.683e-11
   F-              2.683e-11   2.585e-11   -10.571   -10.588    -0.016     -1.31
   HF              1.084e-16   1.084e-16   -15.965   -15.965     0.000     12.50
   HF2-            1.115e-26   1.075e-26   -25.953   -25.969    -0.016     22.06
H(0)          4.888e-15
   H2              2.444e-15   2.445e-15   -14.612   -14.612     0.000     28.61
O(0)          0.000e+00
   O2              0.000e+00   0.000e+00   -63.157   -63.156     0.000     30.40
P             3.155e-07
   HPO4-2          2.407e-07   2.081e-07    -6.618    -6.682    -0.063      6.71
   CaHPO4          3.461e-08   3.462e-08    -7.461    -7.461     0.000     (0)  
   CaPO4-          3.038e-08   2.930e-08    -7.517    -7.533    -0.016     (0)  
   H2PO4-          9.716e-09   9.370e-09    -8.013    -8.028    -0.016     33.21
   CaH2PO4+        7.543e-11   7.274e-11   -10.122   -10.138    -0.016     (0)  
   PO4-3           4.673e-11   3.355e-11   -10.330   -10.474    -0.144    -23.23
   H3PO4           3.856e-15   3.857e-15   -14.414   -14.414     0.000     47.41

------------------------------Saturation indices-------------------------------

  Phase               SI** log IAP   log K(298 K,   1 atm)

  Aragonite        -0.14     -8.48   -8.34  CaCO3
  Calcite           0.00     -8.48   -8.48  CaCO3
  CH4(g)          -24.04    -26.84   -2.80  CH4
  CO2(g)           -3.92     -5.39   -1.47  CO2	 Pressure   0.0 atm, phi 1.000
  Fluorapatite      0.00    -59.60  -59.60  Ca5(F)(PO4)3
  Fluorite        -14.09    -24.69  -10.60  CaF2
  H2(g)           -11.51    -14.61   -3.10  H2
  H2O(g)           -1.50     -0.00    1.50  H2O
  Hydroxyapatite    0.00     -3.42   -3.42  Ca5(PO4)3OH
  Hydroxylapatite   4.06    -54.45  -58.52  Ca5(OH)(PO4)3
  O2(g)           -60.26    -63.16   -2.89  O2

**For a gas, SI = log10(fugacity). Fugacity = pressure * phi / 1 atm.
  For ideal gases, phi = 1.

------------------
End of simulation.
------------------

------------------------------------
Reading input data for simulation 4.
------------------------------------

	USE SOLUTION 1
	 EQUILIBRIUM_PHASES 1
	 CO2(g)    -3.88 100
	 Hydroxyapatite 0 10 dissolve_only
	 Fluorapatite 0 10 dissolve_only
	 Calcite 0 10 dissolve_only
	 REACTION_TEMPERATURE 1
	 25
	 END
-----------------------------------------
Beginning of batch-reaction calculations.
-----------------------------------------

Reaction step 1.

Using solution 1.	
Using pure phase assemblage 1.	
Using temperature 1.	

-------------------------------Phase assemblage--------------------------------

                                                      Moles in assemblage
Phase               SI  log IAP  log K(T, P)   Initial       Final       Delta

CO2(g)           -3.88    -5.35     -1.47    1.000e+02   1.000e+02  -3.529e-04
Calcite           0.00    -8.48     -8.48    1.000e+01   1.000e+01  -3.694e-04
Fluorapatite     -0.00   -59.60    -59.60    1.000e+01   1.000e+01   7.472e-11
Hydroxyapatite   -0.00    -3.42     -3.42    1.000e+01   1.000e+01  -1.091e-07

-----------------------------Solution composition------------------------------

	Elements           Molality       Moles

	C                 7.224e-04   7.223e-04
	Ca                3.700e-04   3.700e-04
	F                 2.528e-11   2.528e-11
	P                 3.275e-07   3.275e-07

----------------------------Description of solution----------------------------

                                       pH  =   8.527      Charge balance
                                       pe  =  -2.797      Adjusted to redox equilibrium
      Specific Conductance (µS/cm,  25°C)  = 71
                          Density (g/cm³)  =   0.99709
                               Volume (L)  =   1.00297
                        Activity of water  =   1.000
                 Ionic strength (mol/kgw)  =   1.100e-03
                       Mass of water (kg)  =   1.000e+00
                 Total alkalinity (eq/kg)  =   7.396e-04
                       Total CO2 (mol/kg)  =   7.224e-04
                         Temperature (°C)  =  25.00
                  Electrical balance (eq)  =  -1.217e-09
 Percent error, 100*(Cat-|An|)/(Cat+|An|)  =  -0.00
                               Iterations  =  16
                                  Total H  = 1.110124e+02
                                  Total O  = 5.550803e+01

----------------------------Distribution of species----------------------------

                                               Log       Log       Log    mole V
   Species          Molality    Activity  Molality  Activity     Gamma   cm³/mol

   OH-             3.540e-06   3.409e-06    -5.451    -5.467    -0.016     -4.11
   H+              3.076e-09   2.969e-09    -8.512    -8.527    -0.015      0.00
   H2O             5.551e+01   1.000e+00     1.744    -0.000     0.000     18.07
C(-4)         1.567e-27
   CH4             1.567e-27   1.567e-27   -26.805   -26.805     0.000     35.46
C(4)          7.224e-04
   HCO3-           6.972e-04   6.720e-04    -3.157    -3.173    -0.016     24.69
   CO3-2           1.230e-05   1.062e-05    -4.910    -4.974    -0.064     -5.27
   CaCO3           5.563e-06   5.565e-06    -5.255    -5.255     0.000    -14.60
   CO2             4.485e-06   4.486e-06    -5.348    -5.348     0.000     34.43
   CaHCO3+         2.775e-06   2.675e-06    -5.557    -5.573    -0.016      9.67
   (CO2)2          3.692e-13   3.693e-13   -12.433   -12.433     0.000     68.87
Ca            3.700e-04
   Ca+2            3.616e-04   3.120e-04    -3.442    -3.506    -0.064    -18.14
   CaCO3           5.563e-06   5.565e-06    -5.255    -5.255     0.000    -14.60
   CaHCO3+         2.775e-06   2.675e-06    -5.557    -5.573    -0.016      9.67
   CaHPO4          3.680e-08   3.681e-08    -7.434    -7.434     0.000     (0)  
   CaPO4-          3.044e-08   2.934e-08    -7.517    -7.533    -0.016     (0)  
   CaOH+           1.811e-08   1.744e-08    -7.742    -7.758    -0.016     (0)  
   CaH2PO4+        8.521e-11   8.213e-11   -10.070   -10.085    -0.016     (0)  
F             2.528e-11
   F-              2.528e-11   2.435e-11   -10.597   -10.614    -0.016     -1.31
   HF              1.084e-16   1.084e-16   -15.965   -15.965     0.000     12.50
   HF2-            1.051e-26   1.013e-26   -25.978   -25.995    -0.016     22.06
H(0)          4.889e-15
   H2              2.444e-15   2.445e-15   -14.612   -14.612     0.000     28.61
O(0)          0.000e+00
   O2              0.000e+00   0.000e+00   -63.157   -63.157     0.000     30.40
P             3.275e-07
   HPO4-2          2.494e-07   2.152e-07    -6.603    -6.667    -0.064      6.72
   CaHPO4          3.680e-08   3.681e-08    -7.434    -7.434     0.000     (0)  
   CaPO4-          3.044e-08   2.934e-08    -7.517    -7.533    -0.016     (0)  
   H2PO4-          1.067e-08   1.029e-08    -7.972    -7.988    -0.016     33.21
   CaH2PO4+        8.521e-11   8.213e-11   -10.070   -10.085    -0.016     (0)  
   PO4-3           4.572e-11   3.267e-11   -10.340   -10.486    -0.146    -23.23
   H3PO4           4.496e-15   4.497e-15   -14.347   -14.347     0.000     47.41

------------------------------Saturation indices-------------------------------

  Phase               SI** log IAP   log K(298 K,   1 atm)

  Aragonite        -0.14     -8.48   -8.34  CaCO3
  Calcite           0.00     -8.48   -8.48  CaCO3
  CH4(g)          -24.00    -26.80   -2.80  CH4
  CO2(g)           -3.88     -5.35   -1.47  CO2	 Pressure   0.0 atm, phi 1.000
  Fluorapatite     -0.00    -59.60  -59.60  Ca5(F)(PO4)3
  Fluorite        -14.13    -24.73  -10.60  CaF2
  H2(g)           -11.51    -14.61   -3.10  H2
  H2O(g)           -1.50     -0.00    1.50  H2O
  Hydroxyapatite   -0.00     -3.42   -3.42  Ca5(PO4)3OH
  Hydroxylapatite   4.06    -54.45  -58.52  Ca5(OH)(PO4)3
  O2(g)           -60.26    -63.16   -2.89  O2

**For a gas, SI = log10(fugacity). Fugacity = pressure * phi / 1 atm.
  For ideal gases, phi = 1.

------------------
End of simulation.
------------------

------------------------------------
Reading input data for simulation 5.
------------------------------------

	USE SOLUTION 1
	 EQUILIBRIUM_PHASES 1
	 CO2(g)    -3.84 100
	 Hydroxyapatite 0 10 dissolve_only
	 Fluorapatite 0 10 dissolve_only
	 Calcite 0 10 dissolve_only
	 REACTION_TEMPERATURE 1
	 25
	 END
-----------------------------------------
Beginning of batch-reaction calculations.
-----------------------------------------

Reaction step 1.

Using solution 1.	
Using pure phase assemblage 1.	
Using temperature 1.	

-------------------------------Phase assemblage--------------------------------

                                                      Moles in assemblage
Phase               SI  log IAP  log K(T, P)   Initial       Final       Delta

CO2(g)           -3.84    -5.31     -1.47    1.000e+02   1.000e+02  -3.651e-04
Calcite           0.00    -8.48     -8.48    1.000e+01   1.000e+01  -3.806e-04
Fluorapatite      0.00   -59.60    -59.60    1.000e+01   1.000e+01   7.618e-11
Hydroxyapatite    0.00    -3.42     -3.42    1.000e+01   1.000e+01  -1.133e-07

-----------------------------Solution composition------------------------------

	Elements           Molality       Moles

	C                 7.457e-04   7.457e-04
	Ca                3.812e-04   3.812e-04
	F                 2.382e-11   2.382e-11
	P                 3.399e-07   3.399e-07

----------------------------Description of solution----------------------------

                                       pH  =   8.501      Charge balance
                                       pe  =  -2.770      Adjusted to redox equilibrium
      Specific Conductance (µS/cm,  25°C)  = 74
                          Density (g/cm³)  =   0.99709
                               Volume (L)  =   1.00297
                        Activity of water  =   1.000
                 Ionic strength (mol/kgw)  =   1.133e-03
                       Mass of water (kg)  =   1.000e+00
                 Total alkalinity (eq/kg)  =   7.621e-04
                       Total CO2 (mol/kg)  =   7.457e-04
                         Temperature (°C)  =  25.00
                  Electrical balance (eq)  =  -1.217e-09
 Percent error, 100*(Cat-|An|)/(Cat+|An|)  =  -0.00
                               Iterations  =  16
                                  Total H  = 1.110124e+02
                                  Total O  = 5.550809e+01

----------------------------Distribution of species----------------------------

                                               Log       Log       Log    mole V
   Species          Molality    Activity  Molality  Activity     Gamma   cm³/mol

   OH-             3.335e-06   3.211e-06    -5.477    -5.493    -0.017     -4.11
   H+              3.268e-09   3.152e-09    -8.486    -8.501    -0.016      0.00
   H2O             5.551e+01   1.000e+00     1.744    -0.000     0.000     18.07
C(-4)         1.719e-27
   CH4             1.719e-27   1.719e-27   -26.765   -26.765     0.000     35.46
C(4)          7.457e-04
   HCO3-           7.203e-04   6.939e-04    -3.142    -3.159    -0.016     24.69
   CO3-2           1.198e-05   1.032e-05    -4.921    -4.986    -0.065     -5.26
   CaCO3           5.563e-06   5.565e-06    -5.255    -5.255     0.000    -14.60
   CO2             4.917e-06   4.919e-06    -5.308    -5.308     0.000     34.43
   CaHCO3+         2.948e-06   2.841e-06    -5.530    -5.547    -0.016      9.67
   (CO2)2          4.439e-13   4.440e-13   -12.353   -12.353     0.000     68.87
Ca            3.812e-04
   Ca+2            3.726e-04   3.209e-04    -3.429    -3.494    -0.065    -18.13
   CaCO3           5.563e-06   5.565e-06    -5.255    -5.255     0.000    -14.60
   CaHCO3+         2.948e-06   2.841e-06    -5.530    -5.547    -0.016      9.67
   CaHPO4          3.913e-08   3.914e-08    -7.407    -7.407     0.000     (0)  
   CaPO4-          3.049e-08   2.938e-08    -7.516    -7.532    -0.016     (0)  
   CaOH+           1.754e-08   1.689e-08    -7.756    -7.772    -0.016     (0)  
   CaH2PO4+        9.627e-11   9.274e-11   -10.017   -10.033    -0.016     (0)  
F             2.382e-11
   F-              2.382e-11   2.293e-11   -10.623   -10.640    -0.017     -1.31
   HF              1.084e-16   1.084e-16   -15.965   -15.965     0.000     12.50
   HF2-            9.903e-27   9.535e-27   -26.004   -26.021    -0.016     22.06
H(0)          4.889e-15
   H2              2.444e-15   2.445e-15   -14.612   -14.612     0.000     28.61
O(0)          0.000e+00
   O2              0.000e+00   0.000e+00   -63.157   -63.157     0.000     30.40
P             3.399e-07
   HPO4-2          2.584e-07   2.225e-07    -6.588    -6.653    -0.065      6.72
   CaHPO4          3.913e-08   3.914e-08    -7.407    -7.407     0.000     (0)  
   CaPO4-          3.049e-08   2.938e-08    -7.516    -7.532    -0.016     (0)  
   H2PO4-          1.173e-08   1.130e-08    -7.931    -7.947    -0.016     33.21
   CaH2PO4+        9.627e-11   9.274e-11   -10.017   -10.033    -0.016     (0)  
   PO4-3           4.473e-11   3.181e-11   -10.349   -10.497    -0.148    -23.22
   H3PO4           5.241e-15   5.243e-15   -14.281   -14.280     0.000     47.41

------------------------------Saturation indices-------------------------------

  Phase               SI** log IAP   log K(298 K,   1 atm)

  Aragonite        -0.14     -8.48   -8.34  CaCO3
  Calcite           0.00     -8.48   -8.48  CaCO3
  CH4(g)          -23.96    -26.76   -2.80  CH4
  CO2(g)           -3.84     -5.31   -1.47  CO2	 Pressure   0.0 atm, phi 1.000
  Fluorapatite      0.00    -59.60  -59.60  Ca5(F)(PO4)3
  Fluorite        -14.17    -24.77  -10.60  CaF2
  H2(g)           -11.51    -14.61   -3.10  H2
  H2O(g)           -1.50     -0.00    1.50  H2O
  Hydroxyapatite    0.00     -3.42   -3.42  Ca5(PO4)3OH
  Hydroxylapatite   4.06    -54.45  -58.52  Ca5(OH)(PO4)3
  O2(g)           -60.26    -63.16   -2.89  O2

**For a gas, SI = log10(fugacity). Fugacity = pressure * phi / 1 atm.
  For ideal gases, phi = 1.

------------------
End of simulation.
------------------

------------------------------------
Reading input data for simulation 6.
------------------------------------

	USE SOLUTION 1
	 EQUILIBRIUM_PHASES 1
	 CO2(g)    -3.80 100
	 Hydroxyapatite 0 10 dissolve_only
	 Fluorapatite 0 10 dissolve_only
	 Calcite 0 10 dissolve_only
	 REACTION_TEMPERATURE 1
	 25
	 END
-----------------------------------------
Beginning of batch-reaction calculations.
-----------------------------------------

Reaction step 1.

Using solution 1.	
Using pure phase assemblage 1.	
Using temperature 1.	

-------------------------------Phase assemblage--------------------------------

                                                      Moles in assemblage
Phase               SI  log IAP  log K(T, P)   Initial       Final       Delta

CO2(g)           -3.80    -5.27     -1.47    1.000e+02   1.000e+02  -3.777e-04
Calcite           0.00    -8.48     -8.48    1.000e+01   1.000e+01  -3.922e-04
Fluorapatite      0.00   -59.60    -59.60    1.000e+01   1.000e+01   7.756e-11
Hydroxyapatite    0.00    -3.42     -3.42    1.000e+01   1.000e+01  -1.176e-07

-----------------------------Solution composition------------------------------

	Elements           Molality       Moles

	C                 7.699e-04   7.699e-04
	Ca                3.928e-04   3.928e-04
	F                 2.244e-11   2.244e-11
	P                 3.529e-07   3.529e-07

----------------------------Description of solution----------------------------

                                       pH  =   8.475      Charge balance
                                       pe  =  -2.744      Adjusted to redox equilibrium
      Specific Conductance (µS/cm,  25°C)  = 76
                          Density (g/cm³)  =   0.99709
                               Volume (L)  =   1.00297
                        Activity of water  =   1.000
                 Ionic strength (mol/kgw)  =   1.167e-03
                       Mass of water (kg)  =   1.000e+00
                 Total alkalinity (eq/kg)  =   7.853e-04
                       Total CO2 (mol/kg)  =   7.699e-04
                         Temperature (°C)  =  25.00
                  Electrical balance (eq)  =  -1.217e-09
 Percent error, 100*(Cat-|An|)/(Cat+|An|)  =  -0.00
                               Iterations  =  16
                                  Total H  = 1.110124e+02
                                  Total O  = 5.550815e+01

----------------------------Distribution of species----------------------------

                                               Log       Log       Log    mole V
   Species          Molality    Activity  Molality  Activity     Gamma   cm³/mol

   OH-             3.142e-06   3.023e-06    -5.503    -5.520    -0.017     -4.10
   H+              3.472e-09   3.348e-09    -8.459    -8.475    -0.016      0.00
   H2O             5.551e+01   1.000e+00     1.744    -0.000     0.000     18.07
C(-4)         1.883e-27
   CH4             1.883e-27   1.884e-27   -26.725   -26.725     0.000     35.46
C(4)          7.699e-04
   HCO3-           7.441e-04   7.165e-04    -3.128    -3.145    -0.016     24.69
   CO3-2           1.168e-05   1.004e-05    -4.933    -4.998    -0.066     -5.26
   CaCO3           5.563e-06   5.565e-06    -5.255    -5.255     0.000    -14.60
   CO2             5.392e-06   5.393e-06    -5.268    -5.268     0.000     34.43
   CaHCO3+         3.133e-06   3.017e-06    -5.504    -5.520    -0.016      9.67
   (CO2)2          5.337e-13   5.339e-13   -12.273   -12.273     0.000     68.87
Ca            3.928e-04
   Ca+2            3.840e-04   3.300e-04    -3.416    -3.481    -0.066    -18.13
   CaCO3           5.563e-06   5.565e-06    -5.255    -5.255     0.000    -14.60
   CaHCO3+         3.133e-06   3.017e-06    -5.504    -5.520    -0.016      9.67
   CaHPO4          4.161e-08   4.162e-08    -7.381    -7.381     0.000     (0)  
   CaPO4-          3.055e-08   2.941e-08    -7.515    -7.531    -0.016     (0)  
   CaOH+           1.700e-08   1.636e-08    -7.770    -7.786    -0.017     (0)  
   CaH2PO4+        1.088e-10   1.047e-10    -9.964    -9.980    -0.016     (0)  
F             2.244e-11
   F-              2.244e-11   2.159e-11   -10.649   -10.666    -0.017     -1.31
   HF              1.084e-16   1.084e-16   -15.965   -15.965     0.000     12.50
   HF2-            9.331e-27   8.979e-27   -26.030   -26.047    -0.017     22.06
H(0)          4.888e-15
   H2              2.444e-15   2.445e-15   -14.612   -14.612     0.000     28.61
O(0)          0.000e+00
   O2              0.000e+00   0.000e+00   -63.157   -63.156     0.000     30.40
P             3.529e-07
   HPO4-2          2.678e-07   2.300e-07    -6.572    -6.638    -0.066      6.72
   CaHPO4          4.161e-08   4.162e-08    -7.381    -7.381     0.000     (0)  
   CaPO4-          3.055e-08   2.941e-08    -7.515    -7.531    -0.016     (0)  
   H2PO4-          1.288e-08   1.240e-08    -7.890    -7.907    -0.016     33.21
   CaH2PO4+        1.088e-10   1.047e-10    -9.964    -9.980    -0.016     (0)  
   PO4-3           4.376e-11   3.097e-11   -10.359   -10.509    -0.150    -23.22
   H3PO4           6.111e-15   6.113e-15   -14.214   -14.214     0.000     47.41

------------------------------Saturation indices-------------------------------

  Phase               SI** log IAP   log K(298 K,   1 atm)

  Aragonite        -0.14     -8.48   -8.34  CaCO3
  Calcite           0.00     -8.48   -8.48  CaCO3
  CH4(g)          -23.92    -26.72   -2.80  CH4
  CO2(g)           -3.80     -5.27   -1.47  CO2	 Pressure   0.0 atm, phi 1.000
  Fluorapatite      0.00    -59.60  -59.60  Ca5(F)(PO4)3
  Fluorite        -14.21    -24.81  -10.60  CaF2
  H2(g)           -11.51    -14.61   -3.10  H2
  H2O(g)           -1.50     -0.00    1.50  H2O
  Hydroxyapatite    0.00     -3.42   -3.42  Ca5(PO4)3OH
  Hydroxylapatite   4.06    -54.45  -58.52  Ca5(OH)(PO4)3
  O2(g)           -60.26    -63.16   -2.89  O2

**For a gas, SI = log10(fugacity). Fugacity = pressure * phi / 1 atm.
  For ideal gases, phi = 1.

------------------
End of simulation.
------------------

------------------------------------
Reading input data for simulation 7.
------------------------------------

	USE SOLUTION 1
	 EQUILIBRIUM_PHASES 1
	 CO2(g)    -3.76 100
	 Hydroxyapatite 0 10 dissolve_only
	 Fluorapatite 0 10 dissolve_only
	 Calcite 0 10 dissolve_only
	 REACTION_TEMPERATURE 1
	 25
	 END
-----------------------------------------
Beginning of batch-reaction calculations.
-----------------------------------------

Reaction step 1.

Using solution 1.	
Using pure phase assemblage 1.	
Using temperature 1.	

-------------------------------Phase assemblage--------------------------------

                                                      Moles in assemblage
Phase               SI  log IAP  log K(T, P)   Initial       Final       Delta

CO2(g)           -3.76    -5.23     -1.47    1.000e+02   1.000e+02  -3.907e-04
Calcite           0.00    -8.48     -8.48    1.000e+01   1.000e+01  -4.042e-04
Fluorapatite      0.00   -59.60    -59.60    1.000e+01   1.000e+01   7.886e-11
Hydroxyapatite    0.00    -3.42     -3.42    1.000e+01   1.000e+01  -1.222e-07

-----------------------------Solution composition------------------------------

	Elements           Molality       Moles

	C                 7.949e-04   7.949e-04
	Ca                4.048e-04   4.048e-04
	F                 2.114e-11   2.114e-11
	P                 3.666e-07   3.666e-07

----------------------------Description of solution----------------------------

                                       pH  =   8.449      Charge balance
                                       pe  =  -2.718      Adjusted to redox equilibrium
      Specific Conductance (µS/cm,  25°C)  = 78
                          Density (g/cm³)  =   0.99710
                               Volume (L)  =   1.00297
                        Activity of water  =   1.000
                 Ionic strength (mol/kgw)  =   1.203e-03
                       Mass of water (kg)  =   1.000e+00
                 Total alkalinity (eq/kg)  =   8.093e-04
                       Total CO2 (mol/kg)  =   7.949e-04
                         Temperature (°C)  =  25.00
                  Electrical balance (eq)  =  -1.217e-09
 Percent error, 100*(Cat-|An|)/(Cat+|An|)  =  -0.00
                               Iterations  =  16
                                  Total H  = 1.110124e+02
                                  Total O  = 5.550821e+01

----------------------------Distribution of species----------------------------

                                               Log       Log       Log    mole V
   Species          Molality    Activity  Molality  Activity     Gamma   cm³/mol

   OH-             2.961e-06   2.847e-06    -5.529    -5.546    -0.017     -4.10
   H+              3.689e-09   3.555e-09    -8.433    -8.449    -0.016      0.00
   H2O             5.551e+01   1.000e+00     1.744    -0.000     0.000     18.07
C(-4)         2.067e-27
   CH4             2.067e-27   2.067e-27   -26.685   -26.685     0.000     35.46
C(4)          7.949e-04
   HCO3-           7.687e-04   7.398e-04    -3.114    -3.131    -0.017     24.69
   CO3-2           1.138e-05   9.759e-06    -4.944    -5.011    -0.067     -5.26
   CO2             5.912e-06   5.913e-06    -5.228    -5.228     0.000     34.43
   CaCO3           5.563e-06   5.565e-06    -5.255    -5.255     0.000    -14.60
   CaHCO3+         3.328e-06   3.204e-06    -5.478    -5.494    -0.017      9.67
   (CO2)2          6.417e-13   6.418e-13   -12.193   -12.193     0.000     68.87
Ca            4.048e-04
   Ca+2            3.958e-04   3.395e-04    -3.402    -3.469    -0.067    -18.13
   CaCO3           5.563e-06   5.565e-06    -5.255    -5.255     0.000    -14.60
   CaHCO3+         3.328e-06   3.204e-06    -5.478    -5.494    -0.017      9.67
   CaHPO4          4.424e-08   4.425e-08    -7.354    -7.354     0.000     (0)  
   CaPO4-          3.060e-08   2.945e-08    -7.514    -7.531    -0.017     (0)  
   CaOH+           1.647e-08   1.585e-08    -7.783    -7.800    -0.017     (0)  
   CaH2PO4+        1.229e-10   1.183e-10    -9.911    -9.927    -0.017     (0)  
F             2.114e-11
   F-              2.114e-11   2.033e-11   -10.675   -10.692    -0.017     -1.31
   HF              1.084e-16   1.084e-16   -15.965   -15.965     0.000     12.50
   HF2-            8.791e-27   8.455e-27   -26.056   -26.073    -0.017     22.06
H(0)          4.889e-15
   H2              2.444e-15   2.445e-15   -14.612   -14.612     0.000     28.61
O(0)          0.000e+00
   O2              0.000e+00   0.000e+00   -63.157   -63.157     0.000     30.40
P             3.666e-07
   HPO4-2          2.774e-07   2.378e-07    -6.557    -6.624    -0.067      6.72
   CaHPO4          4.424e-08   4.425e-08    -7.354    -7.354     0.000     (0)  
   CaPO4-          3.060e-08   2.945e-08    -7.514    -7.531    -0.017     (0)  
   H2PO4-          1.415e-08   1.362e-08    -7.849    -7.866    -0.017     33.21
   CaH2PO4+        1.229e-10   1.183e-10    -9.911    -9.927    -0.017     (0)  
   PO4-3           4.281e-11   3.015e-11   -10.368   -10.521    -0.152    -23.22
   H3PO4           7.125e-15   7.127e-15   -14.147   -14.147     0.000     47.41

------------------------------Saturation indices-------------------------------

  Phase               SI** log IAP   log K(298 K,   1 atm)

  Aragonite        -0.14     -8.48   -8.34  CaCO3
  Calcite           0.00     -8.48   -8.48  CaCO3
  CH4(g)          -23.88    -26.68   -2.80  CH4
  CO2(g)           -3.76     -5.23   -1.47  CO2	 Pressure   0.0 atm, phi 1.000
  Fluorapatite      0.00    -59.60  -59.60  Ca5(F)(PO4)3
  Fluorite        -14.25    -24.85  -10.60  CaF2
  H2(g)           -11.51    -14.61   -3.10  H2
  H2O(g)           -1.50     -0.00    1.50  H2O
  Hydroxyapatite    0.00     -3.42   -3.42  Ca5(PO4)3OH
  Hydroxylapatite   4.06    -54.45  -58.52  Ca5(OH)(PO4)3
  O2(g)           -60.26    -63.16   -2.89  O2

**For a gas, SI = log10(fugacity). Fugacity = pressure * phi / 1 atm.
  For ideal gases, phi = 1.

------------------
End of simulation.
------------------

------------------------------------
Reading input data for simulation 8.
------------------------------------

	USE SOLUTION 1
	 EQUILIBRIUM_PHASES 1
	 CO2(g)    -3.72 100
	 Hydroxyapatite 0 10 dissolve_only
	 Fluorapatite 0 10 dissolve_only
	 Calcite 0 10 dissolve_only
	 REACTION_TEMPERATURE 1
	 25
	 END
-----------------------------------------
Beginning of batch-reaction calculations.
-----------------------------------------

Reaction step 1.

Using solution 1.	
Using pure phase assemblage 1.	
Using temperature 1.	

-------------------------------Phase assemblage--------------------------------

                                                      Moles in assemblage
Phase               SI  log IAP  log K(T, P)   Initial       Final       Delta

CO2(g)           -3.72    -5.19     -1.47    1.000e+02   1.000e+02  -4.041e-04
Calcite           0.00    -8.48     -8.48    1.000e+01   1.000e+01  -4.166e-04
Fluorapatite      0.00   -59.60    -59.60    1.000e+01   1.000e+01   8.008e-11
Hydroxyapatite    0.00    -3.42     -3.42    1.000e+01   1.000e+01  -1.269e-07

-----------------------------Solution composition------------------------------

	Elements           Molality       Moles

	C                 8.208e-04   8.208e-04
	Ca                4.173e-04   4.172e-04
	F                 1.992e-11   1.992e-11
	P                 3.808e-07   3.808e-07

----------------------------Description of solution----------------------------

                                       pH  =   8.423      Charge balance
                                       pe  =  -2.692      Adjusted to redox equilibrium
      Specific Conductance (µS/cm,  25°C)  = 80
                          Density (g/cm³)  =   0.99710
                               Volume (L)  =   1.00297
                        Activity of water  =   1.000
                 Ionic strength (mol/kgw)  =   1.239e-03
                       Mass of water (kg)  =   1.000e+00
                 Total alkalinity (eq/kg)  =   8.341e-04
                       Total CO2 (mol/kg)  =   8.208e-04
                         Temperature (°C)  =  25.00
                  Electrical balance (eq)  =  -1.215e-09
 Percent error, 100*(Cat-|An|)/(Cat+|An|)  =  -0.00
                               Iterations  =  16
                                  Total H  = 1.110124e+02
                                  Total O  = 5.550828e+01

----------------------------Distribution of species----------------------------

                                               Log       Log       Log    mole V
   Species          Molality    Activity  Molality  Activity     Gamma   cm³/mol

   OH-             2.789e-06   2.681e-06    -5.554    -5.572    -0.017     -4.10
   H+              3.920e-09   3.776e-09    -8.407    -8.423    -0.016      0.00
   H2O             5.551e+01   1.000e+00     1.744    -0.000     0.000     18.07
C(-4)         2.265e-27
   CH4             2.265e-27   2.265e-27   -26.645   -26.645     0.000     35.46
C(4)          8.208e-04
   HCO3-           7.941e-04   7.638e-04    -3.100    -3.117    -0.017     24.69
   CO3-2           1.108e-05   9.487e-06    -4.955    -5.023    -0.068     -5.26
   CO2             6.482e-06   6.484e-06    -5.188    -5.188     0.000     34.43
   CaCO3           5.563e-06   5.565e-06    -5.255    -5.255     0.000    -14.60
   CaHCO3+         3.537e-06   3.403e-06    -5.451    -5.468    -0.017      9.67
   (CO2)2          7.714e-13   7.717e-13   -12.113   -12.113     0.000     68.87
Ca            4.173e-04
   Ca+2            4.081e-04   3.492e-04    -3.389    -3.457    -0.068    -18.13
   CaCO3           5.563e-06   5.565e-06    -5.255    -5.255     0.000    -14.60
   CaHCO3+         3.537e-06   3.403e-06    -5.451    -5.468    -0.017      9.67
   CaHPO4          4.704e-08   4.706e-08    -7.327    -7.327     0.000     (0)  
   CaPO4-          3.066e-08   2.949e-08    -7.513    -7.530    -0.017     (0)  
   CaOH+           1.597e-08   1.535e-08    -7.797    -7.814    -0.017     (0)  
   CaH2PO4+        1.388e-10   1.335e-10    -9.857    -9.874    -0.017     (0)  
F             1.992e-11
   F-              1.992e-11   1.914e-11   -10.701   -10.718    -0.017     -1.31
   HF              1.084e-16   1.084e-16   -15.965   -15.965     0.000     12.50
   HF2-            8.282e-27   7.962e-27   -26.082   -26.099    -0.017     22.06
H(0)          4.888e-15
   H2              2.444e-15   2.445e-15   -14.612   -14.612     0.000     28.61
O(0)          0.000e+00
   O2              0.000e+00   0.000e+00   -63.157   -63.157     0.000     30.40
P             3.808e-07
   HPO4-2          2.874e-07   2.458e-07    -6.542    -6.609    -0.068      6.72
   CaHPO4          4.704e-08   4.706e-08    -7.327    -7.327     0.000     (0)  
   CaPO4-          3.066e-08   2.949e-08    -7.513    -7.530    -0.017     (0)  
   H2PO4-          1.554e-08   1.495e-08    -7.809    -7.825    -0.017     33.21
   CaH2PO4+        1.388e-10   1.335e-10    -9.857    -9.874    -0.017     (0)  
   PO4-3           4.188e-11   2.935e-11   -10.378   -10.532    -0.154    -23.21
   H3PO4           8.307e-15   8.309e-15   -14.081   -14.080     0.000     47.41

------------------------------Saturation indices-------------------------------

  Phase               SI** log IAP   log K(298 K,   1 atm)

  Aragonite        -0.14     -8.48   -8.34  CaCO3
  Calcite           0.00     -8.48   -8.48  CaCO3
  CH4(g)          -23.84    -26.64   -2.80  CH4
  CO2(g)           -3.72     -5.19   -1.47  CO2	 Pressure   0.0 atm, phi 1.000
  Fluorapatite      0.00    -59.60  -59.60  Ca5(F)(PO4)3
  Fluorite        -14.29    -24.89  -10.60  CaF2
  H2(g)           -11.51    -14.61   -3.10  H2
  H2O(g)           -1.50     -0.00    1.50  H2O
  Hydroxyapatite    0.00     -3.42   -3.42  Ca5(PO4)3OH
  Hydroxylapatite   4.06    -54.45  -58.52  Ca5(OH)(PO4)3
  O2(g)           -60.26    -63.16   -2.89  O2

**For a gas, SI = log10(fugacity). Fugacity = pressure * phi / 1 atm.
  For ideal gases, phi = 1.

------------------
End of simulation.
------------------

------------------------------------
Reading input data for simulation 9.
------------------------------------

	USE SOLUTION 1
	 EQUILIBRIUM_PHASES 1
	 CO2(g)    -3.68 100
	 Hydroxyapatite 0 10 dissolve_only
	 Fluorapatite 0 10 dissolve_only
	 Calcite 0 10 dissolve_only
	 REACTION_TEMPERATURE 1
	 25
	 END
-----------------------------------------
Beginning of batch-reaction calculations.
-----------------------------------------

Reaction step 1.

Using solution 1.	
Using pure phase assemblage 1.	
Using temperature 1.	

-------------------------------Phase assemblage--------------------------------

                                                      Moles in assemblage
Phase               SI  log IAP  log K(T, P)   Initial       Final       Delta

CO2(g)           -3.68    -5.15     -1.47    1.000e+02   1.000e+02  -4.181e-04
Calcite           0.00    -8.48     -8.48    1.000e+01   1.000e+01  -4.295e-04
Fluorapatite      0.00   -59.60    -59.60    1.000e+01   1.000e+01   8.123e-11
Hydroxyapatite    0.00    -3.42     -3.42    1.000e+01   1.000e+01  -1.319e-07

-----------------------------Solution composition------------------------------

	Elements           Molality       Moles

	C                 8.475e-04   8.475e-04
	Ca                4.301e-04   4.301e-04
	F                 1.877e-11   1.877e-11
	P                 3.957e-07   3.957e-07

----------------------------Description of solution----------------------------

                                       pH  =   8.397      Charge balance
                                       pe  =  -2.666      Adjusted to redox equilibrium
      Specific Conductance (µS/cm,  25°C)  = 83
                          Density (g/cm³)  =   0.99710
                               Volume (L)  =   1.00297
                        Activity of water  =   1.000
                 Ionic strength (mol/kgw)  =   1.277e-03
                       Mass of water (kg)  =   1.000e+00
                 Total alkalinity (eq/kg)  =   8.598e-04
                       Total CO2 (mol/kg)  =   8.475e-04
                         Temperature (°C)  =  25.00
                  Electrical balance (eq)  =  -1.210e-09
 Percent error, 100*(Cat-|An|)/(Cat+|An|)  =  -0.00
                               Iterations  =  16
                                  Total H  = 1.110124e+02
                                  Total O  = 5.550834e+01

----------------------------Distribution of species----------------------------

                                               Log       Log       Log    mole V
   Species          Molality    Activity  Molality  Activity     Gamma   cm³/mol

   OH-             2.628e-06   2.524e-06    -5.580    -5.598    -0.018     -4.10
   H+              4.165e-09   4.010e-09    -8.380    -8.397    -0.016      0.00
   H2O             5.551e+01   1.000e+00     1.744    -0.000     0.000     18.07
C(-4)         2.485e-27
   CH4             2.485e-27   2.486e-27   -26.605   -26.605     0.000     35.46
C(4)          8.475e-04
   HCO3-           8.203e-04   7.886e-04    -3.086    -3.103    -0.017     24.69
   CO3-2           1.080e-05   9.223e-06    -4.967    -5.035    -0.069     -5.26
   CO2             7.107e-06   7.109e-06    -5.148    -5.148     0.000     34.43
   CaCO3           5.563e-06   5.565e-06    -5.255    -5.255     0.000    -14.60
   CaHCO3+         3.758e-06   3.614e-06    -5.425    -5.442    -0.017      9.68
   (CO2)2          9.275e-13   9.277e-13   -12.033   -12.033     0.000     68.87
Ca            4.301e-04
   Ca+2            4.207e-04   3.592e-04    -3.376    -3.445    -0.069    -18.13
   CaCO3           5.563e-06   5.565e-06    -5.255    -5.255     0.000    -14.60
   CaHCO3+         3.758e-06   3.614e-06    -5.425    -5.442    -0.017      9.68
   CaHPO4          5.002e-08   5.004e-08    -7.301    -7.301     0.000     (0)  
   CaPO4-          3.071e-08   2.952e-08    -7.513    -7.530    -0.017     (0)  
   CaOH+           1.547e-08   1.487e-08    -7.810    -7.828    -0.017     (0)  
   CaH2PO4+        1.569e-10   1.508e-10    -9.804    -9.822    -0.017     (0)  
F             1.877e-11
   F-              1.877e-11   1.802e-11   -10.727   -10.744    -0.018     -1.31
   HF              1.084e-16   1.084e-16   -15.965   -15.965     0.000     12.50
   HF2-            7.803e-27   7.496e-27   -26.108   -26.125    -0.017     22.06
H(0)          4.889e-15
   H2              2.445e-15   2.445e-15   -14.612   -14.612     0.000     28.61
O(0)          0.000e+00
   O2              0.000e+00   0.000e+00   -63.157   -63.157     0.000     30.40
P             3.957e-07
   HPO4-2          2.977e-07   2.541e-07    -6.526    -6.595    -0.069      6.73
   CaHPO4          5.002e-08   5.004e-08    -7.301    -7.301     0.000     (0)  
   CaPO4-          3.071e-08   2.952e-08    -7.513    -7.530    -0.017     (0)  
   H2PO4-          1.707e-08   1.641e-08    -7.768    -7.785    -0.017     33.21
   CaH2PO4+        1.569e-10   1.508e-10    -9.804    -9.822    -0.017     (0)  
   PO4-3           4.098e-11   2.857e-11   -10.387   -10.544    -0.157    -23.21
   H3PO4           9.685e-15   9.688e-15   -14.014   -14.014     0.000     47.41

------------------------------Saturation indices-------------------------------

  Phase               SI** log IAP   log K(298 K,   1 atm)

  Aragonite        -0.14     -8.48   -8.34  CaCO3
  Calcite           0.00     -8.48   -8.48  CaCO3
  CH4(g)          -23.80    -26.60   -2.80  CH4
  CO2(g)           -3.68     -5.15   -1.47  CO2	 Pressure   0.0 atm, phi 1.000
  Fluorapatite      0.00    -59.60  -59.60  Ca5(F)(PO4)3
  Fluorite        -14.33    -24.93  -10.60  CaF2
  H2(g)           -11.51    -14.61   -3.10  H2
  H2O(g)           -1.50     -0.00    1.50  H2O
  Hydroxyapatite    0.00     -3.42   -3.42  Ca5(PO4)3OH
  Hydroxylapatite   4.06    -54.45  -58.52  Ca5(OH)(PO4)3
  O2(g)           -60.26    -63.16   -2.89  O2

**For a gas, SI = log10(fugacity). Fugacity = pressure * phi / 1 atm.
  For ideal gases, phi = 1.

------------------
End of simulation.
------------------

-------------------------------------
Reading input data for simulation 10.
-------------------------------------

	USE SOLUTION 1
	 EQUILIBRIUM_PHASES 1
	 CO2(g)    -3.64 100
	 Hydroxyapatite 0 10 dissolve_only
	 Fluorapatite 0 10 dissolve_only
	 Calcite 0 10 dissolve_only
	 REACTION_TEMPERATURE 1
	 25
	 END
-----------------------------------------
Beginning of batch-reaction calculations.
-----------------------------------------

Reaction step 1.

Using solution 1.	
Using pure phase assemblage 1.	
Using temperature 1.	

-------------------------------Phase assemblage--------------------------------

                                                      Moles in assemblage
Phase               SI  log IAP  log K(T, P)   Initial       Final       Delta

CO2(g)           -3.64    -5.11     -1.47    1.000e+02   1.000e+02  -4.325e-04
Calcite           0.00    -8.48     -8.48    1.000e+01   1.000e+01  -4.427e-04
Fluorapatite      0.00   -59.60    -59.60    1.000e+01   1.000e+01   8.232e-11
Hydroxyapatite    0.00    -3.42     -3.42    1.000e+01   1.000e+01  -1.371e-07

-----------------------------Solution composition------------------------------

	Elements           Molality       Moles

	C                 8.752e-04   8.752e-04
	Ca                4.434e-04   4.434e-04
	F                 1.768e-11   1.768e-11
	P                 4.114e-07   4.114e-07

----------------------------Description of solution----------------------------

                                       pH  =   8.371      Charge balance
                                       pe  =  -2.640      Adjusted to redox equilibrium
      Specific Conductance (µS/cm,  25°C)  = 85
                          Density (g/cm³)  =   0.99710
                               Volume (L)  =   1.00297
                        Activity of water  =   1.000
                 Ionic strength (mol/kgw)  =   1.316e-03
                       Mass of water (kg)  =   1.000e+00
                 Total alkalinity (eq/kg)  =   8.864e-04
                       Total CO2 (mol/kg)  =   8.752e-04
                         Temperature (°C)  =  25.00
                  Electrical balance (eq)  =  -1.217e-09
 Percent error, 100*(Cat-|An|)/(Cat+|An|)  =  -0.00
                               Iterations  =  17
                                  Total H  = 1.110124e+02
                                  Total O  = 5.550841e+01

----------------------------Distribution of species----------------------------

                                               Log       Log       Log    mole V
   Species          Molality    Activity  Molality  Activity     Gamma   cm³/mol

   OH-             2.476e-06   2.377e-06    -5.606    -5.624    -0.018     -4.10
   H+              4.426e-09   4.259e-09    -8.354    -8.371    -0.017      0.00
   H2O             5.551e+01   1.000e+00     1.744    -0.000     0.000     18.07
C(-4)         2.723e-27
   CH4             2.723e-27   2.724e-27   -26.565   -26.565     0.000     35.46
C(4)          8.752e-04
   HCO3-           8.474e-04   8.141e-04    -3.072    -3.089    -0.017     24.69
   CO3-2           1.052e-05   8.965e-06    -4.978    -5.047    -0.070     -5.25
   CO2             7.793e-06   7.795e-06    -5.108    -5.108     0.000     34.43
   CaCO3           5.563e-06   5.565e-06    -5.255    -5.255     0.000    -14.60
   CaHCO3+         3.994e-06   3.838e-06    -5.399    -5.416    -0.017      9.68
   (CO2)2          1.115e-12   1.115e-12   -11.953   -11.953     0.000     68.87
Ca            4.434e-04
   Ca+2            4.338e-04   3.695e-04    -3.363    -3.432    -0.070    -18.13
   CaCO3           5.563e-06   5.565e-06    -5.255    -5.255     0.000    -14.60
   CaHCO3+         3.994e-06   3.838e-06    -5.399    -5.416    -0.017      9.68
   CaHPO4          5.319e-08   5.321e-08    -7.274    -7.274     0.000     (0)  
   CaPO4-          3.077e-08   2.956e-08    -7.512    -7.529    -0.017     (0)  
   CaOH+           1.500e-08   1.440e-08    -7.824    -7.842    -0.018     (0)  
   CaH2PO4+        1.773e-10   1.703e-10    -9.751    -9.769    -0.017     (0)  
F             1.768e-11
   F-              1.768e-11   1.697e-11   -10.753   -10.770    -0.018     -1.31
   HF              1.084e-16   1.084e-16   -15.965   -15.965     0.000     12.50
   HF2-            7.351e-27   7.058e-27   -26.134   -26.151    -0.018     22.07
H(0)          4.888e-15
   H2              2.444e-15   2.445e-15   -14.612   -14.612     0.000     28.61
O(0)          0.000e+00
   O2              0.000e+00   0.000e+00   -63.157   -63.157     0.000     30.40
P             4.114e-07
   HPO4-2          3.085e-07   2.626e-07    -6.511    -6.581    -0.070      6.73
   CaHPO4          5.319e-08   5.321e-08    -7.274    -7.274     0.000     (0)  
   CaPO4-          3.077e-08   2.956e-08    -7.512    -7.529    -0.017     (0)  
   H2PO4-          1.875e-08   1.801e-08    -7.727    -7.744    -0.017     33.21
   CaH2PO4+        1.773e-10   1.703e-10    -9.751    -9.769    -0.017     (0)  
   PO4-3           4.009e-11   2.780e-11   -10.397   -10.556    -0.159    -23.20
   H3PO4           1.129e-14   1.130e-14   -13.947   -13.947     0.000     47.41

------------------------------Saturation indices-------------------------------

  Phase               SI** log IAP   log K(298 K,   1 atm)

  Aragonite        -0.14     -8.48   -8.34  CaCO3
  Calcite           0.00     -8.48   -8.48  CaCO3
  CH4(g)          -23.76    -26.56   -2.80  CH4
  CO2(g)           -3.64     -5.11   -1.47  CO2	 Pressure   0.0 atm, phi 1.000
  Fluorapatite      0.00    -59.60  -59.60  Ca5(F)(PO4)3
  Fluorite        -14.37    -24.97  -10.60  CaF2
  H2(g)           -11.51    -14.61   -3.10  H2
  H2O(g)           -1.50     -0.00    1.50  H2O
  Hydroxyapatite    0.00     -3.42   -3.42  Ca5(PO4)3OH
  Hydroxylapatite   4.06    -54.45  -58.52  Ca5(OH)(PO4)3
  O2(g)           -60.26    -63.16   -2.89  O2

**For a gas, SI = log10(fugacity). Fugacity = pressure * phi / 1 atm.
  For ideal gases, phi = 1.

------------------
End of simulation.
------------------

-------------------------------------
Reading input data for simulation 11.
-------------------------------------

	USE SOLUTION 1
	 EQUILIBRIUM_PHASES 1
	 CO2(g)    -3.60 100
	 Hydroxyapatite 0 10 dissolve_only
	 Fluorapatite 0 10 dissolve_only
	 Calcite 0 10 dissolve_only
	 REACTION_TEMPERATURE 1
	 25
	 END
-----------------------------------------
Beginning of batch-reaction calculations.
-----------------------------------------

Reaction step 1.

Using solution 1.	
Using pure phase assemblage 1.	
Using temperature 1.	

-------------------------------Phase assemblage--------------------------------

                                                      Moles in assemblage
Phase               SI  log IAP  log K(T, P)   Initial       Final       Delta

CO2(g)           -3.60    -5.07     -1.47    1.000e+02   1.000e+02  -4.474e-04
Calcite           0.00    -8.48     -8.48    1.000e+01   1.000e+01  -4.565e-04
Fluorapatite      0.00   -59.60    -59.60    1.000e+01   1.000e+01   8.334e-11
Hydroxyapatite    0.00    -3.42     -3.42    1.000e+01   1.000e+01  -1.426e-07

-----------------------------Solution composition------------------------------

	Elements           Molality       Moles

	C                 9.039e-04   9.039e-04
	Ca                4.572e-04   4.572e-04
	F                 1.666e-11   1.666e-11
	P                 4.278e-07   4.278e-07

----------------------------Description of solution----------------------------

                                       pH  =   8.345      Charge balance
                                       pe  =  -2.614      Adjusted to redox equilibrium
      Specific Conductance (µS/cm,  25°C)  = 88
                          Density (g/cm³)  =   0.99710
                               Volume (L)  =   1.00297
                        Activity of water  =   1.000
                 Ionic strength (mol/kgw)  =   1.357e-03
                       Mass of water (kg)  =   1.000e+00
                 Total alkalinity (eq/kg)  =   9.139e-04
                       Total CO2 (mol/kg)  =   9.039e-04
                         Temperature (°C)  =  25.00
                  Electrical balance (eq)  =  -1.217e-09
 Percent error, 100*(Cat-|An|)/(Cat+|An|)  =  -0.00
                               Iterations  =  17
                                  Total H  = 1.110124e+02
                                  Total O  = 5.550848e+01

----------------------------Distribution of species----------------------------

                                               Log       Log       Log    mole V
   Species          Molality    Activity  Molality  Activity     Gamma   cm³/mol

   OH-             2.333e-06   2.238e-06    -5.632    -5.650    -0.018     -4.10
   H+              4.703e-09   4.523e-09    -8.328    -8.345    -0.017      0.00
   H2O             5.551e+01   1.000e+00     1.744    -0.000     0.000     18.07
C(-4)         2.988e-27
   CH4             2.988e-27   2.989e-27   -26.525   -26.525     0.000     35.46
C(4)          9.039e-04
   HCO3-           8.753e-04   8.405e-04    -3.058    -3.075    -0.018     24.69
   CO3-2           1.025e-05   8.714e-06    -4.989    -5.060    -0.071     -5.25
   CO2             8.545e-06   8.547e-06    -5.068    -5.068     0.000     34.43
   CaCO3           5.563e-06   5.565e-06    -5.255    -5.255     0.000    -14.60
   CaHCO3+         4.244e-06   4.076e-06    -5.372    -5.390    -0.018      9.68
   (CO2)2          1.341e-12   1.341e-12   -11.873   -11.873     0.000     68.87
Ca            4.572e-04
   Ca+2            4.473e-04   3.801e-04    -3.349    -3.420    -0.071    -18.12
   CaCO3           5.563e-06   5.565e-06    -5.255    -5.255     0.000    -14.60
   CaHCO3+         4.244e-06   4.076e-06    -5.372    -5.390    -0.018      9.68
   CaHPO4          5.656e-08   5.658e-08    -7.248    -7.247     0.000     (0)  
   CaPO4-          3.082e-08   2.959e-08    -7.511    -7.529    -0.018     (0)  
   CaOH+           1.453e-08   1.395e-08    -7.838    -7.856    -0.018     (0)  
   CaH2PO4+        2.003e-10   1.923e-10    -9.698    -9.716    -0.018     (0)  
F             1.666e-11
   F-              1.666e-11   1.598e-11   -10.778   -10.796    -0.018     -1.31
   HF              1.084e-16   1.084e-16   -15.965   -15.965     0.000     12.50
   HF2-            6.926e-27   6.646e-27   -26.160   -26.177    -0.018     22.07
H(0)          4.889e-15
   H2              2.445e-15   2.445e-15   -14.612   -14.612     0.000     28.61
O(0)          0.000e+00
   O2              0.000e+00   0.000e+00   -63.157   -63.157     0.000     30.40
P             4.278e-07
   HPO4-2          3.196e-07   2.714e-07    -6.495    -6.566    -0.071      6.73
   CaHPO4          5.656e-08   5.658e-08    -7.248    -7.247     0.000     (0)  
   CaPO4-          3.082e-08   2.959e-08    -7.511    -7.529    -0.018     (0)  
   H2PO4-          2.059e-08   1.978e-08    -7.686    -7.704    -0.018     33.21
   CaH2PO4+        2.003e-10   1.923e-10    -9.698    -9.716    -0.018     (0)  
   PO4-3           3.922e-11   2.705e-11   -10.406   -10.568    -0.161    -23.20
   H3PO4           1.317e-14   1.317e-14   -13.881   -13.880     0.000     47.41

------------------------------Saturation indices-------------------------------

  Phase               SI** log IAP   log K(298 K,   1 atm)

  Aragonite        -0.14     -8.48   -8.34  CaCO3
  Calcite           0.00     -8.48   -8.48  CaCO3
  CH4(g)          -23.72    -26.52   -2.80  CH4
  CO2(g)           -3.60     -5.07   -1.47  CO2	 Pressure   0.0 atm, phi 1.000
  Fluorapatite      0.00    -59.60  -59.60  Ca5(F)(PO4)3
  Fluorite        -14.41    -25.01  -10.60  CaF2
  H2(g)           -11.51    -14.61   -3.10  H2
  H2O(g)           -1.50     -0.00    1.50  H2O
  Hydroxyapatite    0.00     -3.42   -3.42  Ca5(PO4)3OH
  Hydroxylapatite   4.06    -54.45  -58.52  Ca5(OH)(PO4)3
  O2(g)           -60.26    -63.16   -2.89  O2

**For a gas, SI = log10(fugacity). Fugacity = pressure * phi / 1 atm.
  For ideal gases, phi = 1.

------------------
End of simulation.
------------------

-------------------------------------
Reading input data for simulation 12.
-------------------------------------

	USE SOLUTION 1
	 EQUILIBRIUM_PHASES 1
	 CO2(g)    -3.56 100
	 Hydroxyapatite 0 10 dissolve_only
	 Fluorapatite 0 10 dissolve_only
	 Calcite 0 10 dissolve_only
	 REACTION_TEMPERATURE 1
	 25
	 END
-----------------------------------------
Beginning of batch-reaction calculations.
-----------------------------------------

Reaction step 1.

Using solution 1.	
Using pure phase assemblage 1.	
Using temperature 1.	

-------------------------------Phase assemblage--------------------------------

                                                      Moles in assemblage
Phase               SI  log IAP  log K(T, P)   Initial       Final       Delta

CO2(g)           -3.56    -5.03     -1.47    1.000e+02   1.000e+02  -4.629e-04
Calcite           0.00    -8.48     -8.48    1.000e+01   1.000e+01  -4.707e-04
Fluorapatite      0.00   -59.60    -59.60    1.000e+01   1.000e+01   8.431e-11
Hydroxyapatite    0.00    -3.42     -3.42    1.000e+01   1.000e+01  -1.483e-07

-----------------------------Solution composition------------------------------

	Elements           Molality       Moles

	C                 9.336e-04   9.336e-04
	Ca                4.714e-04   4.714e-04
	F                 1.569e-11   1.569e-11
	P                 4.449e-07   4.449e-07

----------------------------Description of solution----------------------------

                                       pH  =   8.318      Charge balance
                                       pe  =  -2.588      Adjusted to redox equilibrium
      Specific Conductance (µS/cm,  25°C)  = 90
                          Density (g/cm³)  =   0.99710
                               Volume (L)  =   1.00297
                        Activity of water  =   1.000
                 Ionic strength (mol/kgw)  =   1.399e-03
                       Mass of water (kg)  =   1.000e+00
                 Total alkalinity (eq/kg)  =   9.424e-04
                       Total CO2 (mol/kg)  =   9.336e-04
                         Temperature (°C)  =  25.00
                  Electrical balance (eq)  =  -1.217e-09
 Percent error, 100*(Cat-|An|)/(Cat+|An|)  =  -0.00
                               Iterations  =  17
                                  Total H  = 1.110124e+02
                                  Total O  = 5.550856e+01

----------------------------Distribution of species----------------------------

                                               Log       Log       Log    mole V
   Species          Molality    Activity  Molality  Activity     Gamma   cm³/mol

   OH-             2.197e-06   2.107e-06    -5.658    -5.676    -0.018     -4.10
   H+              4.998e-09   4.804e-09    -8.301    -8.318    -0.017      0.00
   H2O             5.551e+01   1.000e+00     1.744    -0.000     0.000     18.07
C(-4)         3.276e-27
   CH4             3.276e-27   3.277e-27   -26.485   -26.484     0.000     35.46
C(4)          9.336e-04
   HCO3-           9.041e-04   8.677e-04    -3.044    -3.062    -0.018     24.69
   CO3-2           9.987e-06   8.470e-06    -5.001    -5.072    -0.072     -5.25
   CO2             9.369e-06   9.372e-06    -5.028    -5.028     0.000     34.43
   CaCO3           5.563e-06   5.565e-06    -5.255    -5.255     0.000    -14.60
   CaHCO3+         4.510e-06   4.329e-06    -5.346    -5.364    -0.018      9.68
   (CO2)2          1.612e-12   1.612e-12   -11.793   -11.793     0.000     68.87
Ca            4.714e-04
   Ca+2            4.612e-04   3.911e-04    -3.336    -3.408    -0.072    -18.12
   CaCO3           5.563e-06   5.565e-06    -5.255    -5.255     0.000    -14.60
   CaHCO3+         4.510e-06   4.329e-06    -5.346    -5.364    -0.018      9.68
   CaHPO4          6.014e-08   6.016e-08    -7.221    -7.221     0.000     (0)  
   CaPO4-          3.087e-08   2.963e-08    -7.510    -7.528    -0.018     (0)  
   CaOH+           1.409e-08   1.351e-08    -7.851    -7.869    -0.018     (0)  
   CaH2PO4+        2.264e-10   2.172e-10    -9.645    -9.663    -0.018     (0)  
F             1.569e-11
   F-              1.569e-11   1.504e-11   -10.804   -10.823    -0.018     -1.31
   HF              1.084e-16   1.084e-16   -15.965   -15.965     0.000     12.50
   HF2-            6.524e-27   6.257e-27   -26.185   -26.204    -0.018     22.07
H(0)          4.889e-15
   H2              2.445e-15   2.445e-15   -14.612   -14.612     0.000     28.61
O(0)          0.000e+00
   O2              0.000e+00   0.000e+00   -63.157   -63.157     0.000     30.40
P             4.449e-07
   HPO4-2          3.310e-07   2.805e-07    -6.480    -6.552    -0.072      6.73
   CaHPO4          6.014e-08   6.016e-08    -7.221    -7.221     0.000     (0)  
   CaPO4-          3.087e-08   2.963e-08    -7.510    -7.528    -0.018     (0)  
   H2PO4-          2.262e-08   2.171e-08    -7.645    -7.663    -0.018     33.21
   CaH2PO4+        2.264e-10   2.172e-10    -9.645    -9.663    -0.018     (0)  
   PO4-3           3.837e-11   2.633e-11   -10.416   -10.580    -0.164    -23.19
   H3PO4           1.535e-14   1.535e-14   -13.814   -13.814     0.000     47.41

------------------------------Saturation indices-------------------------------

  Phase               SI** log IAP   log K(298 K,   1 atm)

  Aragonite        -0.14     -8.48   -8.34  CaCO3
  Calcite           0.00     -8.48   -8.48  CaCO3
  CH4(g)          -23.68    -26.48   -2.80  CH4
  CO2(g)           -3.56     -5.03   -1.47  CO2	 Pressure   0.0 atm, phi 1.000
  Fluorapatite      0.00    -59.60  -59.60  Ca5(F)(PO4)3
  Fluorite        -14.45    -25.05  -10.60  CaF2
  H2(g)           -11.51    -14.61   -3.10  H2
  H2O(g)           -1.50     -0.00    1.50  H2O
  Hydroxyapatite    0.00     -3.42   -3.42  Ca5(PO4)3OH
  Hydroxylapatite   4.06    -54.45  -58.52  Ca5(OH)(PO4)3
  O2(g)           -60.26    -63.16   -2.89  O2

**For a gas, SI = log10(fugacity). Fugacity = pressure * phi / 1 atm.
  For ideal gases, phi = 1.

------------------
End of simulation.
------------------

-------------------------------------
Reading input data for simulation 13.
-------------------------------------

	USE SOLUTION 1
	 EQUILIBRIUM_PHASES 1
	 CO2(g)    -3.52 100
	 Hydroxyapatite 0 10 dissolve_only
	 Fluorapatite 0 10 dissolve_only
	 Calcite 0 10 dissolve_only
	 REACTION_TEMPERATURE 1
	 25
	 END
-----------------------------------------
Beginning of batch-reaction calculations.
-----------------------------------------

Reaction step 1.

Using solution 1.	
Using pure phase assemblage 1.	
Using temperature 1.	

-------------------------------Phase assemblage--------------------------------

                                                      Moles in assemblage
Phase               SI  log IAP  log K(T, P)   Initial       Final       Delta

CO2(g)           -3.52    -4.99     -1.47    1.000e+02   1.000e+02  -4.789e-04
Calcite           0.00    -8.48     -8.48    1.000e+01   1.000e+01  -4.854e-04
Fluorapatite      0.00   -59.60    -59.60    1.000e+01   1.000e+01   8.522e-11
Hydroxyapatite    0.00    -3.42     -3.42    1.000e+01   1.000e+01  -1.543e-07

-----------------------------Solution composition------------------------------

	Elements           Molality       Moles

	C                 9.643e-04   9.643e-04
	Ca                4.862e-04   4.862e-04
	F                 1.478e-11   1.478e-11
	P                 4.630e-07   4.630e-07

----------------------------Description of solution----------------------------

                                       pH  =   8.292      Charge balance
                                       pe  =  -2.561      Adjusted to redox equilibrium
      Specific Conductance (µS/cm,  25°C)  = 93
                          Density (g/cm³)  =   0.99711
                               Volume (L)  =   1.00297
                        Activity of water  =   1.000
                 Ionic strength (mol/kgw)  =   1.442e-03
                       Mass of water (kg)  =   1.000e+00
                 Total alkalinity (eq/kg)  =   9.719e-04
                       Total CO2 (mol/kg)  =   9.643e-04
                         Temperature (°C)  =  25.00
                  Electrical balance (eq)  =  -1.217e-09
 Percent error, 100*(Cat-|An|)/(Cat+|An|)  =  -0.00
                               Iterations  =  17
                                  Total H  = 1.110124e+02
                                  Total O  = 5.550863e+01

----------------------------Distribution of species----------------------------

                                               Log       Log       Log    mole V
   Species          Molality    Activity  Molality  Activity     Gamma   cm³/mol

   OH-             2.070e-06   1.984e-06    -5.684    -5.703    -0.019     -4.10
   H+              5.311e-09   5.103e-09    -8.275    -8.292    -0.017      0.00
   H2O             5.551e+01   1.000e+00     1.744    -0.000     0.000     18.07
C(-4)         3.595e-27
   CH4             3.595e-27   3.597e-27   -26.444   -26.444     0.000     35.46
C(4)          9.643e-04
   HCO3-           9.339e-04   8.957e-04    -3.030    -3.048    -0.018     24.69
   CO2             1.027e-05   1.028e-05    -4.988    -4.988     0.000     34.43
   CO3-2           9.730e-06   8.232e-06    -5.012    -5.084    -0.073     -5.25
   CaCO3           5.563e-06   5.565e-06    -5.255    -5.255     0.000    -14.60
   CaHCO3+         4.793e-06   4.598e-06    -5.319    -5.337    -0.018      9.68
   (CO2)2          1.938e-12   1.938e-12   -11.713   -11.713     0.000     68.87
Ca            4.862e-04
   Ca+2            4.757e-04   4.024e-04    -3.323    -3.395    -0.073    -18.12
   CaCO3           5.563e-06   5.565e-06    -5.255    -5.255     0.000    -14.60
   CaHCO3+         4.793e-06   4.598e-06    -5.319    -5.337    -0.018      9.68
   CaHPO4          6.395e-08   6.397e-08    -7.194    -7.194     0.000     (0)  
   CaPO4-          3.093e-08   2.966e-08    -7.510    -7.528    -0.018     (0)  
   CaOH+           1.365e-08   1.309e-08    -7.865    -7.883    -0.018     (0)  
   CaH2PO4+        2.558e-10   2.453e-10    -9.592    -9.610    -0.018     (0)  
F             1.478e-11
   F-              1.478e-11   1.416e-11   -10.830   -10.849    -0.019     -1.31
   HF              1.084e-16   1.084e-16   -15.965   -15.965     0.000     12.50
   HF2-            6.147e-27   5.891e-27   -26.211   -26.230    -0.018     22.07
H(0)          4.890e-15
   H2              2.445e-15   2.446e-15   -14.612   -14.612     0.000     28.61
O(0)          0.000e+00
   O2              0.000e+00   0.000e+00   -63.157   -63.157     0.000     30.40
P             4.630e-07
[...]
   H2              2.439e-15   2.452e-15   -14.613   -14.610     0.002     28.61
O(0)          0.000e+00
   O2              0.000e+00   0.000e+00   -63.162   -63.160     0.002     30.40
P             1.068e-04
   H2PO4-          7.757e-05   6.733e-05    -4.110    -4.172    -0.061     33.35
   CaHPO4          1.172e-05   1.178e-05    -4.931    -4.929     0.002     (0)  
   HPO4-2          8.935e-06   5.028e-06    -5.049    -5.299    -0.250      7.17
   CaH2PO4+        8.483e-06   7.364e-06    -5.071    -5.133    -0.061     (0)  
   CaPO4-          3.863e-08   3.353e-08    -7.413    -7.475    -0.061     (0)  
   H3PO4           8.198e-09   8.242e-09    -8.086    -8.084     0.002     47.41
   PO4-3           1.049e-11   2.727e-12   -10.979   -11.564    -0.585    -22.23

------------------------------Saturation indices-------------------------------

  Phase               SI** log IAP   log K(298 K,   1 atm)

  Aragonite        -0.14     -8.48   -8.34  CaCO3
  Calcite           0.00     -8.48   -8.48  CaCO3
  CH4(g)          -20.24    -23.04   -2.80  CH4
  CO2(g)           -0.12     -1.59   -1.47  CO2	 Pressure   0.8 atm, phi 0.996
  Fluorapatite      0.00    -59.60  -59.60  Ca5(F)(PO4)3
  Fluorite        -17.89    -28.49  -10.60  CaF2
  H2(g)           -11.51    -14.61   -3.10  H2
  H2O(g)           -1.50     -0.00    1.50  H2O
  Hydroxyapatite    0.00     -3.42   -3.42  Ca5(PO4)3OH
  Hydroxylapatite   4.06    -54.45  -58.52  Ca5(OH)(PO4)3
  O2(g)           -60.27    -63.16   -2.89  O2

**For a gas, SI = log10(fugacity). Fugacity = pressure * phi / 1 atm.
  For ideal gases, phi = 1.

------------------
End of simulation.
------------------

-------------------------------------
Reading input data for simulation 99.
-------------------------------------

	USE SOLUTION 1
	 EQUILIBRIUM_PHASES 1
	 CO2(g)    -0.08 100
	 Hydroxyapatite 0 10 dissolve_only
	 Fluorapatite 0 10 dissolve_only
	 Calcite 0 10 dissolve_only
	 REACTION_TEMPERATURE 1
	 25
	 END
-----------------------------------------
Beginning of batch-reaction calculations.
-----------------------------------------

Reaction step 1.

Using solution 1.	
Using pure phase assemblage 1.	
Using temperature 1.	

-------------------------------Phase assemblage--------------------------------

                                                      Moles in assemblage
Phase               SI  log IAP  log K(T, P)   Initial       Final       Delta

CO2(g)           -0.08    -1.55     -1.47    1.000e+02   9.996e+01  -3.682e-02
Calcite           0.00    -8.48     -8.48    1.000e+01   9.991e+00  -8.531e-03
Fluorapatite      0.00   -59.60    -59.60    1.000e+01   1.000e+01   9.990e-11
Hydroxyapatite    0.00    -3.42     -3.42    1.000e+01   1.000e+01  -3.892e-05

-----------------------------Solution composition------------------------------

	Elements           Molality       Moles

	C                 4.535e-02   4.535e-02
	Ca                8.727e-03   8.725e-03
	F                 9.576e-14   9.574e-14
	P                 1.168e-04   1.168e-04

----------------------------Description of solution----------------------------

                                       pH  =   6.055      Charge balance
                                       pe  =  -0.325      Adjusted to redox equilibrium
      Specific Conductance (µS/cm,  25°C)  = 1391
                          Density (g/cm³)  =   0.99845
                               Volume (L)  =   1.00405
                        Activity of water  =   0.999
                 Ionic strength (mol/kgw)  =   2.429e-02
                       Mass of water (kg)  =   9.998e-01
                 Total alkalinity (eq/kg)  =   1.734e-02
                       Total CO2 (mol/kg)  =   4.535e-02
                         Temperature (°C)  =  25.00
                  Electrical balance (eq)  =  -1.217e-09
 Percent error, 100*(Cat-|An|)/(Cat+|An|)  =  -0.00
                               Iterations  =  19
                                  Total H  = 1.110125e+02
                                  Total O  = 5.560595e+01

----------------------------Distribution of species----------------------------

                                               Log       Log       Log    mole V
   Species          Molality    Activity  Molality  Activity     Gamma   cm³/mol

   H+              9.994e-07   8.817e-07    -6.000    -6.055    -0.054      0.00
   OH-             1.339e-08   1.147e-08    -7.873    -7.940    -0.067     -3.96
   H2O             5.551e+01   9.991e-01     1.744    -0.000     0.000     18.07
C(-4)         1.004e-23
   CH4             1.004e-23   1.009e-23   -22.998   -22.996     0.002     35.46
C(4)          4.535e-02
   CO2             2.802e-02   2.817e-02    -1.553    -1.550     0.002     34.43
   HCO3-           1.639e-02   1.420e-02    -1.785    -1.848    -0.062     24.85
   CaHCO3+         9.140e-04   7.946e-04    -3.039    -3.100    -0.061      9.76
   (CO2)2          1.449e-05   1.457e-05    -4.839    -4.837     0.002     68.87
   CaCO3           5.534e-06   5.565e-06    -5.257    -5.255     0.002    -14.60
   CO3-2           1.340e-06   7.552e-07    -5.873    -6.122    -0.249     -4.79
Ca            8.727e-03
   Ca+2            7.785e-03   4.386e-03    -2.109    -2.358    -0.249    -17.78
   CaHCO3+         9.140e-04   7.946e-04    -3.039    -3.100    -0.061      9.76
   CaHPO4          1.246e-05   1.253e-05    -4.905    -4.902     0.002     (0)  
   CaH2PO4+        9.581e-06   8.302e-06    -5.019    -5.081    -0.062     (0)  
   CaCO3           5.534e-06   5.565e-06    -5.257    -5.255     0.002    -14.60
   CaPO4-          3.879e-08   3.361e-08    -7.411    -7.473    -0.062     (0)  
   CaOH+           9.582e-10   8.249e-10    -9.019    -9.084    -0.065     (0)  
F             9.576e-14
   F-              9.565e-14   8.190e-14   -13.019   -13.087    -0.067     -1.20
   HF              1.077e-16   1.083e-16   -15.968   -15.965     0.002     12.50
   HF2-            3.953e-29   3.403e-29   -28.403   -28.468    -0.065     22.18
H(0)          4.891e-15
   H2              2.445e-15   2.459e-15   -14.612   -14.609     0.002     28.61
O(0)          0.000e+00
   O2              0.000e+00   0.000e+00   -63.165   -63.162     0.002     30.40
P             1.168e-04
   H2PO4-          8.537e-05   7.397e-05    -4.069    -4.131    -0.062     33.35
   CaHPO4          1.246e-05   1.253e-05    -4.905    -4.902     0.002     (0)  
   CaH2PO4+        9.581e-06   8.302e-06    -5.019    -5.081    -0.062     (0)  
   HPO4-2          9.330e-06   5.209e-06    -5.030    -5.283    -0.253      7.18
   CaPO4-          3.879e-08   3.361e-08    -7.411    -7.473    -0.062     (0)  
   H3PO4           9.549e-09   9.602e-09    -8.020    -8.018     0.002     47.41
   PO4-3           1.045e-11   2.663e-12   -10.981   -11.575    -0.594    -22.21

------------------------------Saturation indices-------------------------------

  Phase               SI** log IAP   log K(298 K,   1 atm)

  Aragonite        -0.14     -8.48   -8.34  CaCO3
  Calcite           0.00     -8.48   -8.48  CaCO3
  CH4(g)          -20.19    -23.00   -2.80  CH4
  CO2(g)           -0.08     -1.55   -1.47  CO2	 Pressure   0.8 atm, phi 0.995
  Fluorapatite      0.00    -59.60  -59.60  Ca5(F)(PO4)3
  Fluorite        -17.93    -28.53  -10.60  CaF2
  H2(g)           -11.51    -14.61   -3.10  H2
  H2O(g)           -1.50     -0.00    1.50  H2O
  Hydroxyapatite    0.00     -3.42   -3.42  Ca5(PO4)3OH
  Hydroxylapatite   4.06    -54.45  -58.52  Ca5(OH)(PO4)3
  O2(g)           -60.27    -63.16   -2.89  O2

**For a gas, SI = log10(fugacity). Fugacity = pressure * phi / 1 atm.
  For ideal gases, phi = 1.

------------------
End of simulation.
------------------

--------------------------------------
Reading input data for simulation 100.
--------------------------------------

	USE SOLUTION 1
	 EQUILIBRIUM_PHASES 1
	 CO2(g)    -0.04 100
	 Hydroxyapatite 0 10 dissolve_only
	 Fluorapatite 0 10 dissolve_only
	 Calcite 0 10 dissolve_only
	 REACTION_TEMPERATURE 1
	 25
	 END
-----------------------------------------
Beginning of batch-reaction calculations.
-----------------------------------------

Reaction step 1.

Using solution 1.	
Using pure phase assemblage 1.	
Using temperature 1.	

-------------------------------Phase assemblage--------------------------------

                                                      Moles in assemblage
Phase               SI  log IAP  log K(T, P)   Initial       Final       Delta

CO2(g)           -0.04    -1.51     -1.47    1.000e+02   9.996e+01  -3.984e-02
Calcite           0.00    -8.48     -8.48    1.000e+01   9.991e+00  -8.837e-03
Fluorapatite      0.00   -59.60    -59.60    1.000e+01   1.000e+01   9.991e-11
Hydroxyapatite    0.00    -3.42     -3.42    1.000e+01   1.000e+01  -4.260e-05

-----------------------------Solution composition------------------------------

	Elements           Molality       Moles

	C                 4.868e-02   4.867e-02
	Ca                9.052e-03   9.050e-03
	F                 9.051e-14   9.049e-14
	P                 1.278e-04   1.278e-04

----------------------------Description of solution----------------------------

                                       pH  =   6.029      Charge balance
                                       pe  =  -0.301      Adjusted to redox equilibrium
      Specific Conductance (µS/cm,  25°C)  = 1438
                          Density (g/cm³)  =   0.99851
                               Volume (L)  =   1.00415
                        Activity of water  =   0.999
                 Ionic strength (mol/kgw)  =   2.515e-02
                       Mass of water (kg)  =   9.998e-01
                 Total alkalinity (eq/kg)  =   1.798e-02
                       Total CO2 (mol/kg)  =   4.868e-02
                         Temperature (°C)  =  25.00
                  Electrical balance (eq)  =  -1.217e-09
 Percent error, 100*(Cat-|An|)/(Cat+|An|)  =  -0.00
                               Iterations  =  19
                                  Total H  = 1.110125e+02
                                  Total O  = 5.561295e+01

----------------------------Distribution of species----------------------------

                                               Log       Log       Log    mole V
   Species          Molality    Activity  Molality  Activity     Gamma   cm³/mol

   H+              1.061e-06   9.350e-07    -5.974    -6.029    -0.055      0.00
   OH-             1.266e-08   1.081e-08    -7.898    -7.966    -0.068     -3.96
   H2O             5.551e+01   9.990e-01     1.744    -0.000     0.000     18.07
C(-4)         1.131e-23
   CH4             1.131e-23   1.137e-23   -22.947   -22.944     0.003     35.46
C(4)          4.868e-02
   CO2             3.070e-02   3.088e-02    -1.513    -1.510     0.003     34.43
   HCO3-           1.697e-02   1.467e-02    -1.770    -1.833    -0.063     24.86
   CaHCO3+         9.711e-04   8.427e-04    -3.013    -3.074    -0.062      9.76
   (CO2)2          1.740e-05   1.750e-05    -4.759    -4.757     0.003     68.87
   CaCO3           5.533e-06   5.565e-06    -5.257    -5.255     0.003    -14.60
   CO3-2           1.316e-06   7.359e-07    -5.881    -6.133    -0.252     -4.78
Ca            9.052e-03
   Ca+2            8.051e-03   4.501e-03    -2.094    -2.347    -0.253    -17.77
   CaHCO3+         9.711e-04   8.427e-04    -3.013    -3.074    -0.062      9.76
   CaHPO4          1.324e-05   1.332e-05    -4.878    -4.876     0.003     (0)  
   CaH2PO4+        1.082e-05   9.358e-06    -4.966    -5.029    -0.063     (0)  
   CaCO3           5.533e-06   5.565e-06    -5.257    -5.255     0.003    -14.60
   CaPO4-          3.896e-08   3.369e-08    -7.409    -7.472    -0.063     (0)  
   CaOH+           9.291e-10   7.981e-10    -9.032    -9.098    -0.066     (0)  
F             9.051e-14
   F-              9.040e-14   7.722e-14   -13.044   -13.112    -0.068     -1.20
   HF              1.077e-16   1.083e-16   -15.968   -15.965     0.003     12.50
   HF2-            3.735e-29   3.209e-29   -28.428   -28.494    -0.066     22.18
H(0)          4.924e-15
   H2              2.462e-15   2.476e-15   -14.609   -14.606     0.003     28.61
O(0)          0.000e+00
   O2              0.000e+00   0.000e+00   -63.171   -63.168     0.003     30.40
P             1.278e-04
   H2PO4-          9.397e-05   8.126e-05    -4.027    -4.090    -0.063     33.35
   CaHPO4          1.324e-05   1.332e-05    -4.878    -4.876     0.003     (0)  
   CaH2PO4+        1.082e-05   9.358e-06    -4.966    -5.029    -0.063     (0)  
   HPO4-2          9.743e-06   5.395e-06    -5.011    -5.268    -0.257      7.19
   CaPO4-          3.896e-08   3.369e-08    -7.409    -7.472    -0.063     (0)  
   H3PO4           1.112e-08   1.119e-08    -7.954    -7.951     0.003     47.41
   PO4-3           1.041e-11   2.601e-12   -10.982   -11.585    -0.602    -22.19

------------------------------Saturation indices-------------------------------

  Phase               SI** log IAP   log K(298 K,   1 atm)

  Aragonite        -0.14     -8.48   -8.34  CaCO3
  Calcite           0.00     -8.48   -8.48  CaCO3
  CH4(g)          -20.14    -22.94   -2.80  CH4
  CO2(g)           -0.04     -1.51   -1.47  CO2	 Pressure   0.9 atm, phi 0.995
  Fluorapatite      0.00    -59.60  -59.60  Ca5(F)(PO4)3
  Fluorite        -17.97    -28.57  -10.60  CaF2
  H2(g)           -11.51    -14.61   -3.10  H2
  H2O(g)           -1.50     -0.00    1.50  H2O
  Hydroxyapatite    0.00     -3.42   -3.42  Ca5(PO4)3OH
  Hydroxylapatite   4.06    -54.45  -58.52  Ca5(OH)(PO4)3
  O2(g)           -60.28    -63.17   -2.89  O2

**For a gas, SI = log10(fugacity). Fugacity = pressure * phi / 1 atm.
  For ideal gases, phi = 1.

------------------
End of simulation.
------------------

--------------------------------------
Reading input data for simulation 101.
--------------------------------------

	USE SOLUTION 1
	 EQUILIBRIUM_PHASES 1
	 CO2(g)     0.00 100
	 Hydroxyapatite 0 10 dissolve_only
	 Fluorapatite 0 10 dissolve_only
	 Calcite 0 10 dissolve_only
	 REACTION_TEMPERATURE 1
	 25
	 END
-----------------------------------------
Beginning of batch-reaction calculations.
-----------------------------------------

Reaction step 1.

Using solution 1.	
Using pure phase assemblage 1.	
Using temperature 1.	

-------------------------------Phase assemblage--------------------------------

                                                      Moles in assemblage
Phase               SI  log IAP  log K(T, P)   Initial       Final       Delta

CO2(g)           -0.00    -1.47     -1.47    1.000e+02   9.996e+01  -4.312e-02
Calcite           0.00    -8.48     -8.48    1.000e+01   9.991e+00  -9.155e-03
Fluorapatite      0.00   -59.60    -59.60    1.000e+01   1.000e+01   9.991e-11
Hydroxyapatite    0.00    -3.42     -3.42    1.000e+01   1.000e+01  -4.664e-05

-----------------------------Solution composition------------------------------

	Elements           Molality       Moles

	C                 5.229e-02   5.228e-02
	Ca                9.390e-03   9.388e-03
	F                 8.555e-14   8.553e-14
	P                 1.399e-04   1.399e-04

----------------------------Description of solution----------------------------

                                       pH  =   6.004      Charge balance
                                       pe  =  -0.271      Adjusted to redox equilibrium
      Specific Conductance (µS/cm,  25°C)  = 1485
                          Density (g/cm³)  =   0.99859
                               Volume (L)  =   1.00426
                        Activity of water  =   0.999
                 Ionic strength (mol/kgw)  =   2.603e-02
                       Mass of water (kg)  =   9.998e-01
                 Total alkalinity (eq/kg)  =   1.864e-02
                       Total CO2 (mol/kg)  =   5.229e-02
                         Temperature (°C)  =  25.00
                  Electrical balance (eq)  =  -1.217e-09
 Percent error, 100*(Cat-|An|)/(Cat+|An|)  =  -0.00
                               Iterations  =  19
                                  Total H  = 1.110125e+02
                                  Total O  = 5.562054e+01

----------------------------Distribution of species----------------------------

                                               Log       Log       Log    mole V
   Species          Molality    Activity  Molality  Activity     Gamma   cm³/mol

   H+              1.127e-06   9.915e-07    -5.948    -6.004    -0.056      0.00
   OH-             1.196e-08   1.020e-08    -7.922    -7.992    -0.069     -3.96
   H2O             5.551e+01   9.990e-01     1.744    -0.000     0.000     18.07
C(-4)         1.138e-23
   CH4             1.138e-23   1.145e-23   -22.944   -22.941     0.003     35.46
C(4)          5.229e-02
   CO2             3.364e-02   3.384e-02    -1.473    -1.471     0.003     34.43
   HCO3-           1.757e-02   1.516e-02    -1.755    -1.819    -0.064     24.86
   CaHCO3+         1.032e-03   8.936e-04    -2.986    -3.049    -0.062      9.76
   (CO2)2          2.089e-05   2.102e-05    -4.680    -4.677     0.003     68.87
   CaCO3           5.532e-06   5.565e-06    -5.257    -5.255     0.003    -14.60
   CO3-2           1.293e-06   7.172e-07    -5.888    -6.144    -0.256     -4.77
Ca            9.390e-03
   Ca+2            8.326e-03   4.619e-03    -2.080    -2.335    -0.256    -17.76
   CaHCO3+         1.032e-03   8.936e-04    -2.986    -3.049    -0.062      9.76
   CaHPO4          1.407e-05   1.415e-05    -4.852    -4.849     0.003     (0)  
   CaH2PO4+        1.222e-05   1.055e-05    -4.913    -4.977    -0.064     (0)  
   CaCO3           5.532e-06   5.565e-06    -5.257    -5.255     0.003    -14.60
   CaPO4-          3.913e-08   3.377e-08    -7.407    -7.471    -0.064     (0)  
   CaOH+           9.008e-10   7.723e-10    -9.045    -9.112    -0.067     (0)  
F             8.555e-14
   F-              8.544e-14   7.282e-14   -13.068   -13.138    -0.069     -1.19
   HF              1.076e-16   1.083e-16   -15.968   -15.965     0.003     12.50
   HF2-            3.529e-29   3.026e-29   -28.452   -28.519    -0.067     22.18
H(0)          4.819e-15
   H2              2.409e-15   2.424e-15   -14.618   -14.615     0.003     28.61
O(0)          0.000e+00
   O2              0.000e+00   0.000e+00   -63.153   -63.150     0.003     30.40
P             1.399e-04
   H2PO4-          1.034e-04   8.926e-05    -3.985    -4.049    -0.064     33.36
   CaHPO4          1.407e-05   1.415e-05    -4.852    -4.849     0.003     (0)  
   CaH2PO4+        1.222e-05   1.055e-05    -4.913    -4.977    -0.064     (0)  
   HPO4-2          1.018e-05   5.589e-06    -4.992    -5.253    -0.260      7.20
   CaPO4-          3.913e-08   3.377e-08    -7.407    -7.471    -0.064     (0)  
   H3PO4           1.295e-08   1.303e-08    -7.888    -7.885     0.003     47.41
   PO4-3           1.038e-11   2.541e-12   -10.984   -11.595    -0.611    -22.16

------------------------------Saturation indices-------------------------------

  Phase               SI** log IAP   log K(298 K,   1 atm)

  Aragonite        -0.14     -8.48   -8.34  CaCO3
  Calcite           0.00     -8.48   -8.48  CaCO3
  CH4(g)          -20.14    -22.94   -2.80  CH4
  CO2(g)           -0.00     -1.47   -1.47  CO2	 Pressure   1.0 atm, phi 0.994
  Fluorapatite      0.00    -59.60  -59.60  Ca5(F)(PO4)3
  Fluorite        -18.01    -28.61  -10.60  CaF2
  H2(g)           -11.51    -14.62   -3.10  H2
  H2O(g)           -1.50     -0.00    1.50  H2O
  Hydroxyapatite    0.00     -3.42   -3.42  Ca5(PO4)3OH
  Hydroxylapatite   4.06    -54.45  -58.52  Ca5(OH)(PO4)3
  O2(g)           -60.26    -63.15   -2.89  O2

**For a gas, SI = log10(fugacity). Fugacity = pressure * phi / 1 atm.
  For ideal gases, phi = 1.

------------------
End of simulation.
------------------

--------------------------------------
Reading input data for simulation 102.
--------------------------------------

----------------------------------
End of Run after 0.196617 Seconds.
----------------------------------

