   Input file: ../examples/StreamModelTP.pqi
  Output file: ../examples/StreamModelTP.pqi.out
Database file: ../database/phreeqc.dat

------------------
Reading data base.
------------------

	SOLUTION_MASTER_SPECIES
	SOLUTION_SPECIES
	PHASES
	EXCHANGE_MASTER_SPECIES
	EXCHANGE_SPECIES
	SURFACE_MASTER_SPECIES
	SURFACE_SPECIES
	RATES
	END
------------------------------------
Reading input data for simulation 1.
------------------------------------

	DATABASE ../database/phreeqc.dat
	SOLUTION 1
	    temp      25
	    pH        7
	    pe        4
	    redox     pe
	    units     mmol/kgw
	    density   1
	    water    1 # kg
	PHASES
	Fluorapatite
	    Ca5(F)(PO4)3 = 5Ca+2 + F- + 3PO4-3
	    log_k     -59.6
	    analytical_expression -1917.945184 0 87834.57783 631.9611081 0 0
	Hydroxylapatite
	    Ca5(OH)(PO4)3 = 5Ca+2 + OH- + 3PO4-3
	    log_k     -58.517
	    analytical_expression -1.6657 -0.098215 -8219.41 0 0 0
	SELECTED_OUTPUT 1
	    file                 ../examples/StreamModelTP.sel
	    reset                false
	    temperature          true
	    ph          true
	    totals               P
	    saturation_indices   CO2(g)
	USE SOLUTION 1
	 EQUILIBRIUM_PHASES 1
	 CO2(g)    -4 100
	 Hydroxyapatite 0 10 dissolve_only
	 Fluorapatite 0 10 dissolve_only
	 Calcite 0 10 dissolve_only
	 REACTION_TEMPERATURE 1
	 50
	 END
-------------------------------------------
Beginning of initial solution calculations.
-------------------------------------------

Initial solution 1.	

-----------------------------Solution composition------------------------------

	Elements           Molality       Moles

	Pure water     

----------------------------Description of solution----------------------------

                                       pH  =   7.000    
                                       pe  =   4.000    
      Specific Conductance (µS/cm,  25°C)  = 0
                          Density (g/cm³)  =   0.99704
                               Volume (L)  =   1.00297
                        Activity of water  =   1.000
                 Ionic strength (mol/kgw)  =   1.007e-07
                       Mass of water (kg)  =   1.000e+00
                 Total alkalinity (eq/kg)  =   1.217e-09
                         Temperature (°C)  =  25.00
                  Electrical balance (eq)  =  -1.217e-09
 Percent error, 100*(Cat-|An|)/(Cat+|An|)  =  -0.60
                               Iterations  =   0
                                  Total H  = 1.110124e+02
                                  Total O  = 5.550622e+01

----------------------------Distribution of species----------------------------

                                               Log       Log       Log    mole V
   Species          Molality    Activity  Molality  Activity     Gamma   cm³/mol

   OH-             1.013e-07   1.012e-07    -6.995    -6.995    -0.000     -4.14
   H+              1.001e-07   1.000e-07    -7.000    -7.000    -0.000      0.00
   H2O             5.551e+01   1.000e+00     1.744     0.000     0.000     18.07
H(0)          1.416e-25
   H2              7.079e-26   7.079e-26   -25.150   -25.150     0.000     28.61
O(0)          0.000e+00
   O2              0.000e+00   0.000e+00   -42.080   -42.080     0.000     30.40

------------------------------Saturation indices-------------------------------

  Phase               SI** log IAP   log K(298 K,   1 atm)

  H2(g)           -22.05    -25.15   -3.10  H2
  H2O(g)           -1.50      0.00    1.50  H2O
  O2(g)           -39.19    -42.08   -2.89  O2

**For a gas, SI = log10(fugacity). Fugacity = pressure * phi / 1 atm.
  For ideal gases, phi = 1.

-----------------------------------------
Beginning of batch-reaction calculations.
-----------------------------------------

Reaction step 1.

Using solution 1.	
Using pure phase assemblage 1.	
Using temperature 1.	

-------------------------------Phase assemblage--------------------------------

                                                      Moles in assemblage
Phase               SI  log IAP  log K(T, P)   Initial       Final       Delta

CO2(g)           -4.00    -5.71     -1.71    1.000e+02   1.000e+02  -1.986e-04
Calcite           0.00    -8.66     -8.66    1.000e+01   1.000e+01  -2.382e-04
Fluorapatite     -0.00   -60.29    -60.29    1.000e+01   1.000e+01  -1.702e-10
Hydroxyapatite    0.00    -5.47     -5.47    1.000e+01   1.000e+01  -3.874e-08

-----------------------------Solution composition------------------------------

	Elements           Molality       Moles

	C                 4.368e-04   4.368e-04
	Ca                2.384e-04   2.384e-04
	F                 1.702e-10   1.702e-10
	P                 1.167e-07   1.167e-07

----------------------------Description of solution----------------------------

                                       pH  =   8.600      Charge balance
                                       pe  =  -2.919      Adjusted to redox equilibrium
      Specific Conductance (µS/cm,  50°C)  = 78
                          Density (g/cm³)  =   0.98806
                               Volume (L)  =   1.01212
                        Activity of water  =   1.000
                 Ionic strength (mol/kgw)  =   7.034e-04
                       Mass of water (kg)  =   1.000e+00
                 Total alkalinity (eq/kg)  =   4.768e-04
                       Total CO2 (mol/kg)  =   4.368e-04
                         Temperature (°C)  =  50.00
                  Electrical balance (eq)  =  -1.212e-09
 Percent error, 100*(Cat-|An|)/(Cat+|An|)  =  -0.00
                               Iterations  =  15
                                  Total H  = 1.110124e+02
                                  Total O  = 5.550733e+01

----------------------------Distribution of species----------------------------

                                               Log       Log       Log    mole V
   Species          Molality    Activity  Molality  Activity     Gamma   cm³/mol

   OH-             2.251e-05   2.181e-05    -4.648    -4.661    -0.014     -3.80
   H+              2.587e-09   2.509e-09    -8.587    -8.600    -0.013      0.00
   H2O             5.551e+01   1.000e+00     1.744    -0.000     0.000     18.23
C(-4)         9.788e-31
   CH4             9.788e-31   9.789e-31   -30.009   -30.009     0.000     37.33
C(4)          4.368e-04
   HCO3-           4.143e-04   4.016e-04    -3.383    -3.396    -0.014     25.70
   CO3-2           1.213e-05   1.071e-05    -4.916    -4.970    -0.054     -5.32
   CaCO3           7.086e-06   7.087e-06    -5.150    -5.150     0.000    -14.53
   CO2             1.946e-06   1.946e-06    -5.711    -5.711     0.000     35.66
   CaHCO3+         1.355e-06   1.314e-06    -5.868    -5.881    -0.013     10.29
   (CO2)2          1.422e-13   1.422e-13   -12.847   -12.847     0.000     71.32
Ca            2.384e-04
   Ca+2            2.299e-04   2.030e-04    -3.638    -3.693    -0.054    -18.23
   CaCO3           7.086e-06   7.087e-06    -5.150    -5.150     0.000    -14.53
   CaHCO3+         1.355e-06   1.314e-06    -5.868    -5.881    -0.013     10.29
   CaPO4-          1.878e-08   1.820e-08    -7.726    -7.740    -0.014     (0)  
   CaOH+           1.385e-08   1.342e-08    -7.858    -7.872    -0.014     (0)  
   CaHPO4          1.250e-08   1.250e-08    -7.903    -7.903     0.000     (0)  
   CaH2PO4+        2.165e-11   2.099e-11   -10.664   -10.678    -0.014     (0)  
F             1.702e-10
   F-              1.702e-10   1.649e-10    -9.769    -9.783    -0.014     -1.52
   HF              9.943e-16   9.945e-16   -15.002   -15.002     0.000     13.33
   HF2-            7.340e-25   7.112e-25   -24.134   -24.148    -0.014     22.61
H(0)          4.889e-15
   H2              2.445e-15   2.445e-15   -14.612   -14.612     0.000     28.59
O(0)          0.000e+00
   O2              0.000e+00   0.000e+00   -55.713   -55.713     0.000     31.92
P             1.167e-07
   HPO4-2          8.273e-08   7.300e-08    -7.082    -7.137    -0.054      5.41
   CaPO4-          1.878e-08   1.820e-08    -7.726    -7.740    -0.014     (0)  
   CaHPO4          1.250e-08   1.250e-08    -7.903    -7.903     0.000     (0)  
   H2PO4-          2.675e-09   2.593e-09    -8.573    -8.586    -0.014     32.51
   PO4-3           2.762e-11   2.079e-11   -10.559   -10.682    -0.123    -26.08
   CaH2PO4+        2.165e-11   2.099e-11   -10.664   -10.678    -0.014     (0)  
   H3PO4           1.261e-15   1.261e-15   -14.899   -14.899     0.000     48.41

------------------------------Saturation indices-------------------------------

  Phase               SI** log IAP   log K(323 K,   1 atm)

  Aragonite        -0.13     -8.66   -8.54  CaCO3
  Calcite           0.00     -8.66   -8.66  CaCO3
  CH4(g)          -27.05    -30.01   -2.96  CH4
  CO2(g)           -4.00     -5.71   -1.71  CO2	 Pressure   0.0 atm, phi 1.000
  Fluorapatite     -0.00    -60.29  -60.29  Ca5(F)(PO4)3
  Fluorite        -12.89    -23.26  -10.37  CaF2
  H2(g)           -11.48    -14.61   -3.14  H2
  H2O(g)           -0.92     -0.00    0.92  H2O
  Hydroxyapatite    0.00     -5.47   -5.47  Ca5(PO4)3OH
  Hydroxylapatite   3.67    -55.17  -58.84  Ca5(OH)(PO4)3
  O2(g)           -52.68    -55.71   -3.03  O2

**For a gas, SI = log10(fugacity). Fugacity = pressure * phi / 1 atm.
  For ideal gases, phi = 1.

------------------
End of simulation.
------------------

------------------------------------
Reading input data for simulation 2.
------------------------------------

----------------------------------
End of Run after 0.040278 Seconds.
----------------------------------

